
---------- Begin Simulation Statistics ----------
sim_seconds                                  1.853920                       # Number of seconds simulated
sim_ticks                                1853920307500                       # Number of ticks simulated
final_tick                               1853920307500                       # Number of ticks from beginning of simulation (restored from checkpoints and never reset)
sim_freq                                 1000000000000                       # Frequency of simulated ticks
host_inst_rate                                 161979                       # Simulator instruction rate (inst/s)
host_op_rate                                   161979                       # Simulator op (including micro ops) rate (op/s)
host_tick_rate                             4907209497                       # Simulator tick rate (ticks/s)
host_mem_usage                                 754848                       # Number of bytes of host memory used
host_seconds                                   377.80                       # Real time elapsed on the host
sim_insts                                    61194720                       # Number of instructions simulated
sim_ops                                      61194720                       # Number of ops (including micro ops) simulated
system.voltage_domain.voltage                       1                       # Voltage in Volts
system.clk_domain.clock                          1000                       # Clock period in ticks
system.mem_ctrls.bytes_read::cpu.inst         1232448                       # Number of bytes read from this memory
system.mem_ctrls.bytes_read::cpu.data        34128256                       # Number of bytes read from this memory
system.mem_ctrls.bytes_read::tsunami.ide      2748864                       # Number of bytes read from this memory
system.mem_ctrls.bytes_read::total           38109568                       # Number of bytes read from this memory
system.mem_ctrls.bytes_inst_read::cpu.inst      1232448                       # Number of instructions bytes read from this memory
system.mem_ctrls.bytes_inst_read::total       1232448                       # Number of instructions bytes read from this memory
system.mem_ctrls.bytes_written::writebacks     23016128                       # Number of bytes written to this memory
system.mem_ctrls.bytes_written::total        23016128                       # Number of bytes written to this memory
system.mem_ctrls.num_reads::cpu.inst            19257                       # Number of read requests responded to by this memory
system.mem_ctrls.num_reads::cpu.data           533254                       # Number of read requests responded to by this memory
system.mem_ctrls.num_reads::tsunami.ide         42951                       # Number of read requests responded to by this memory
system.mem_ctrls.num_reads::total              595462                       # Number of read requests responded to by this memory
system.mem_ctrls.num_writes::writebacks        359627                       # Number of write requests responded to by this memory
system.mem_ctrls.num_writes::total             359627                       # Number of write requests responded to by this memory
system.mem_ctrls.bw_read::cpu.inst             664779                       # Total read bandwidth from this memory (bytes/s)
system.mem_ctrls.bw_read::cpu.data           18408696                       # Total read bandwidth from this memory (bytes/s)
system.mem_ctrls.bw_read::tsunami.ide         1482730                       # Total read bandwidth from this memory (bytes/s)
system.mem_ctrls.bw_read::total              20556206                       # Total read bandwidth from this memory (bytes/s)
system.mem_ctrls.bw_inst_read::cpu.inst        664779                       # Instruction read bandwidth from this memory (bytes/s)
system.mem_ctrls.bw_inst_read::total           664779                       # Instruction read bandwidth from this memory (bytes/s)
system.mem_ctrls.bw_write::writebacks        12414842                       # Write bandwidth from this memory (bytes/s)
system.mem_ctrls.bw_write::total             12414842                       # Write bandwidth from this memory (bytes/s)
system.mem_ctrls.bw_total::writebacks        12414842                       # Total bandwidth to/from this memory (bytes/s)
system.mem_ctrls.bw_total::cpu.inst            664779                       # Total bandwidth to/from this memory (bytes/s)
system.mem_ctrls.bw_total::cpu.data          18408696                       # Total bandwidth to/from this memory (bytes/s)
system.mem_ctrls.bw_total::tsunami.ide        1482730                       # Total bandwidth to/from this memory (bytes/s)
system.mem_ctrls.bw_total::total             32971048                       # Total bandwidth to/from this memory (bytes/s)
system.mem_ctrls.readReqs                      595462                       # Number of read requests accepted
system.mem_ctrls.writeReqs                     359627                       # Number of write requests accepted
system.mem_ctrls.readBursts                    595462                       # Number of DRAM read bursts, including those serviced by the write queue
system.mem_ctrls.writeBursts                   359627                       # Number of DRAM write bursts, including those merged in the write queue
system.mem_ctrls.bytesReadDRAM               38098496                       # Total number of bytes read from DRAM
system.mem_ctrls.bytesReadWrQ                   11072                       # Total number of bytes read from write queue
system.mem_ctrls.bytesWritten                23013888                       # Total number of bytes written to DRAM
system.mem_ctrls.bytesReadSys                38109568                       # Total read bytes from the system interface side
system.mem_ctrls.bytesWrittenSys             23016128                       # Total written bytes from the system interface side
system.mem_ctrls.servicedByWrQ                    173                       # Number of DRAM read bursts serviced by the write queue
system.mem_ctrls.mergedWrBursts                    12                       # Number of DRAM write bursts merged with an existing one
system.mem_ctrls.neitherReadNorWriteReqs          174                       # Number of requests that are neither read nor write
system.mem_ctrls.perBankRdBursts::0             37085                       # Per bank write bursts
system.mem_ctrls.perBankRdBursts::1             37086                       # Per bank write bursts
system.mem_ctrls.perBankRdBursts::2             37899                       # Per bank write bursts
system.mem_ctrls.perBankRdBursts::3             38547                       # Per bank write bursts
system.mem_ctrls.perBankRdBursts::4             37286                       # Per bank write bursts
system.mem_ctrls.perBankRdBursts::5             37956                       # Per bank write bursts
system.mem_ctrls.perBankRdBursts::6             36427                       # Per bank write bursts
system.mem_ctrls.perBankRdBursts::7             36756                       # Per bank write bursts
system.mem_ctrls.perBankRdBursts::8             36970                       # Per bank write bursts
system.mem_ctrls.perBankRdBursts::9             36896                       # Per bank write bursts
system.mem_ctrls.perBankRdBursts::10            36668                       # Per bank write bursts
system.mem_ctrls.perBankRdBursts::11            36857                       # Per bank write bursts
system.mem_ctrls.perBankRdBursts::12            36691                       # Per bank write bursts
system.mem_ctrls.perBankRdBursts::13            37531                       # Per bank write bursts
system.mem_ctrls.perBankRdBursts::14            37815                       # Per bank write bursts
system.mem_ctrls.perBankRdBursts::15            36819                       # Per bank write bursts
system.mem_ctrls.perBankWrBursts::0             22306                       # Per bank write bursts
system.mem_ctrls.perBankWrBursts::1             22407                       # Per bank write bursts
system.mem_ctrls.perBankWrBursts::2             22839                       # Per bank write bursts
system.mem_ctrls.perBankWrBursts::3             23338                       # Per bank write bursts
system.mem_ctrls.perBankWrBursts::4             22564                       # Per bank write bursts
system.mem_ctrls.perBankWrBursts::5             23529                       # Per bank write bursts
system.mem_ctrls.perBankWrBursts::6             22217                       # Per bank write bursts
system.mem_ctrls.perBankWrBursts::7             22281                       # Per bank write bursts
system.mem_ctrls.perBankWrBursts::8             22236                       # Per bank write bursts
system.mem_ctrls.perBankWrBursts::9             22076                       # Per bank write bursts
system.mem_ctrls.perBankWrBursts::10            21975                       # Per bank write bursts
system.mem_ctrls.perBankWrBursts::11            22018                       # Per bank write bursts
system.mem_ctrls.perBankWrBursts::12            22080                       # Per bank write bursts
system.mem_ctrls.perBankWrBursts::13            22540                       # Per bank write bursts
system.mem_ctrls.perBankWrBursts::14            22704                       # Per bank write bursts
system.mem_ctrls.perBankWrBursts::15            22482                       # Per bank write bursts
system.mem_ctrls.numRdRetry                         0                       # Number of times read queue was full causing retry
system.mem_ctrls.numWrRetry                         8                       # Number of times write queue was full causing retry
system.mem_ctrls.totGap                  1853916259000                       # Total gap between requests
system.mem_ctrls.readPktSize::0                     0                       # Read request sizes (log2)
system.mem_ctrls.readPktSize::1                     0                       # Read request sizes (log2)
system.mem_ctrls.readPktSize::2                     0                       # Read request sizes (log2)
system.mem_ctrls.readPktSize::3                     0                       # Read request sizes (log2)
system.mem_ctrls.readPktSize::4                     0                       # Read request sizes (log2)
system.mem_ctrls.readPktSize::5                     0                       # Read request sizes (log2)
system.mem_ctrls.readPktSize::6                595462                       # Read request sizes (log2)
system.mem_ctrls.writePktSize::0                    0                       # Write request sizes (log2)
system.mem_ctrls.writePktSize::1                    0                       # Write request sizes (log2)
system.mem_ctrls.writePktSize::2                    0                       # Write request sizes (log2)
system.mem_ctrls.writePktSize::3                    0                       # Write request sizes (log2)
system.mem_ctrls.writePktSize::4                    0                       # Write request sizes (log2)
system.mem_ctrls.writePktSize::5                    0                       # Write request sizes (log2)
system.mem_ctrls.writePktSize::6               359627                       # Write request sizes (log2)
system.mem_ctrls.rdQLenPdf::0                  324398                       # What read queue length does an incoming req see
system.mem_ctrls.rdQLenPdf::1                  135141                       # What read queue length does an incoming req see
system.mem_ctrls.rdQLenPdf::2                   72870                       # What read queue length does an incoming req see
system.mem_ctrls.rdQLenPdf::3                   24603                       # What read queue length does an incoming req see
system.mem_ctrls.rdQLenPdf::4                    1258                       # What read queue length does an incoming req see
system.mem_ctrls.rdQLenPdf::5                    4485                       # What read queue length does an incoming req see
system.mem_ctrls.rdQLenPdf::6                    3913                       # What read queue length does an incoming req see
system.mem_ctrls.rdQLenPdf::7                    3963                       # What read queue length does an incoming req see
system.mem_ctrls.rdQLenPdf::8                    4219                       # What read queue length does an incoming req see
system.mem_ctrls.rdQLenPdf::9                    2668                       # What read queue length does an incoming req see
system.mem_ctrls.rdQLenPdf::10                   2231                       # What read queue length does an incoming req see
system.mem_ctrls.rdQLenPdf::11                   2107                       # What read queue length does an incoming req see
system.mem_ctrls.rdQLenPdf::12                   1960                       # What read queue length does an incoming req see
system.mem_ctrls.rdQLenPdf::13                   1891                       # What read queue length does an incoming req see
system.mem_ctrls.rdQLenPdf::14                   1618                       # What read queue length does an incoming req see
system.mem_ctrls.rdQLenPdf::15                   1616                       # What read queue length does an incoming req see
system.mem_ctrls.rdQLenPdf::16                   1601                       # What read queue length does an incoming req see
system.mem_ctrls.rdQLenPdf::17                   1625                       # What read queue length does an incoming req see
system.mem_ctrls.rdQLenPdf::18                   1784                       # What read queue length does an incoming req see
system.mem_ctrls.rdQLenPdf::19                   1334                       # What read queue length does an incoming req see
system.mem_ctrls.rdQLenPdf::20                      4                       # What read queue length does an incoming req see
system.mem_ctrls.rdQLenPdf::21                      0                       # What read queue length does an incoming req see
system.mem_ctrls.rdQLenPdf::22                      0                       # What read queue length does an incoming req see
system.mem_ctrls.rdQLenPdf::23                      0                       # What read queue length does an incoming req see
system.mem_ctrls.rdQLenPdf::24                      0                       # What read queue length does an incoming req see
system.mem_ctrls.rdQLenPdf::25                      0                       # What read queue length does an incoming req see
system.mem_ctrls.rdQLenPdf::26                      0                       # What read queue length does an incoming req see
system.mem_ctrls.rdQLenPdf::27                      0                       # What read queue length does an incoming req see
system.mem_ctrls.rdQLenPdf::28                      0                       # What read queue length does an incoming req see
system.mem_ctrls.rdQLenPdf::29                      0                       # What read queue length does an incoming req see
system.mem_ctrls.rdQLenPdf::30                      0                       # What read queue length does an incoming req see
system.mem_ctrls.rdQLenPdf::31                      0                       # What read queue length does an incoming req see
system.mem_ctrls.wrQLenPdf::0                       1                       # What write queue length does an incoming req see
system.mem_ctrls.wrQLenPdf::1                       1                       # What write queue length does an incoming req see
system.mem_ctrls.wrQLenPdf::2                       1                       # What write queue length does an incoming req see
system.mem_ctrls.wrQLenPdf::3                       1                       # What write queue length does an incoming req see
system.mem_ctrls.wrQLenPdf::4                       1                       # What write queue length does an incoming req see
system.mem_ctrls.wrQLenPdf::5                       1                       # What write queue length does an incoming req see
system.mem_ctrls.wrQLenPdf::6                       1                       # What write queue length does an incoming req see
system.mem_ctrls.wrQLenPdf::7                       1                       # What write queue length does an incoming req see
system.mem_ctrls.wrQLenPdf::8                       1                       # What write queue length does an incoming req see
system.mem_ctrls.wrQLenPdf::9                       1                       # What write queue length does an incoming req see
system.mem_ctrls.wrQLenPdf::10                      1                       # What write queue length does an incoming req see
system.mem_ctrls.wrQLenPdf::11                      1                       # What write queue length does an incoming req see
system.mem_ctrls.wrQLenPdf::12                      1                       # What write queue length does an incoming req see
system.mem_ctrls.wrQLenPdf::13                      1                       # What write queue length does an incoming req see
system.mem_ctrls.wrQLenPdf::14                      1                       # What write queue length does an incoming req see
system.mem_ctrls.wrQLenPdf::15                    679                       # What write queue length does an incoming req see
system.mem_ctrls.wrQLenPdf::16                   1063                       # What write queue length does an incoming req see
system.mem_ctrls.wrQLenPdf::17                   2610                       # What write queue length does an incoming req see
system.mem_ctrls.wrQLenPdf::18                   6498                       # What write queue length does an incoming req see
system.mem_ctrls.wrQLenPdf::19                  10637                       # What write queue length does an incoming req see
system.mem_ctrls.wrQLenPdf::20                  15593                       # What write queue length does an incoming req see
system.mem_ctrls.wrQLenPdf::21                  19419                       # What write queue length does an incoming req see
system.mem_ctrls.wrQLenPdf::22                  19621                       # What write queue length does an incoming req see
system.mem_ctrls.wrQLenPdf::23                  19754                       # What write queue length does an incoming req see
system.mem_ctrls.wrQLenPdf::24                  19851                       # What write queue length does an incoming req see
system.mem_ctrls.wrQLenPdf::25                  22247                       # What write queue length does an incoming req see
system.mem_ctrls.wrQLenPdf::26                  20982                       # What write queue length does an incoming req see
system.mem_ctrls.wrQLenPdf::27                  21367                       # What write queue length does an incoming req see
system.mem_ctrls.wrQLenPdf::28                  25533                       # What write queue length does an incoming req see
system.mem_ctrls.wrQLenPdf::29                  24099                       # What write queue length does an incoming req see
system.mem_ctrls.wrQLenPdf::30                  24765                       # What write queue length does an incoming req see
system.mem_ctrls.wrQLenPdf::31                  24875                       # What write queue length does an incoming req see
system.mem_ctrls.wrQLenPdf::32                  22032                       # What write queue length does an incoming req see
system.mem_ctrls.wrQLenPdf::33                  11608                       # What write queue length does an incoming req see
system.mem_ctrls.wrQLenPdf::34                   8744                       # What write queue length does an incoming req see
system.mem_ctrls.wrQLenPdf::35                   4945                       # What write queue length does an incoming req see
system.mem_ctrls.wrQLenPdf::36                   1170                       # What write queue length does an incoming req see
system.mem_ctrls.wrQLenPdf::37                   1204                       # What write queue length does an incoming req see
system.mem_ctrls.wrQLenPdf::38                   1155                       # What write queue length does an incoming req see
system.mem_ctrls.wrQLenPdf::39                   1088                       # What write queue length does an incoming req see
system.mem_ctrls.wrQLenPdf::40                   1249                       # What write queue length does an incoming req see
system.mem_ctrls.wrQLenPdf::41                   1364                       # What write queue length does an incoming req see
system.mem_ctrls.wrQLenPdf::42                   1512                       # What write queue length does an incoming req see
system.mem_ctrls.wrQLenPdf::43                   1615                       # What write queue length does an incoming req see
system.mem_ctrls.wrQLenPdf::44                   1798                       # What write queue length does an incoming req see
system.mem_ctrls.wrQLenPdf::45                   1843                       # What write queue length does an incoming req see
system.mem_ctrls.wrQLenPdf::46                   1945                       # What write queue length does an incoming req see
system.mem_ctrls.wrQLenPdf::47                   1873                       # What write queue length does an incoming req see
system.mem_ctrls.wrQLenPdf::48                   2003                       # What write queue length does an incoming req see
system.mem_ctrls.wrQLenPdf::49                   1967                       # What write queue length does an incoming req see
system.mem_ctrls.wrQLenPdf::50                   1919                       # What write queue length does an incoming req see
system.mem_ctrls.wrQLenPdf::51                   1914                       # What write queue length does an incoming req see
system.mem_ctrls.wrQLenPdf::52                   1781                       # What write queue length does an incoming req see
system.mem_ctrls.wrQLenPdf::53                   1531                       # What write queue length does an incoming req see
system.mem_ctrls.wrQLenPdf::54                   1288                       # What write queue length does an incoming req see
system.mem_ctrls.wrQLenPdf::55                    907                       # What write queue length does an incoming req see
system.mem_ctrls.wrQLenPdf::56                    636                       # What write queue length does an incoming req see
system.mem_ctrls.wrQLenPdf::57                    453                       # What write queue length does an incoming req see
system.mem_ctrls.wrQLenPdf::58                    290                       # What write queue length does an incoming req see
system.mem_ctrls.wrQLenPdf::59                     69                       # What write queue length does an incoming req see
system.mem_ctrls.wrQLenPdf::60                     39                       # What write queue length does an incoming req see
system.mem_ctrls.wrQLenPdf::61                     27                       # What write queue length does an incoming req see
system.mem_ctrls.wrQLenPdf::62                     19                       # What write queue length does an incoming req see
system.mem_ctrls.wrQLenPdf::63                     19                       # What write queue length does an incoming req see
system.mem_ctrls.bytesPerActivate::samples        88658                       # Bytes accessed per row activation
system.mem_ctrls.bytesPerActivate::mean    629.828780                       # Bytes accessed per row activation
system.mem_ctrls.bytesPerActivate::gmean   400.915472                       # Bytes accessed per row activation
system.mem_ctrls.bytesPerActivate::stdev   420.585369                       # Bytes accessed per row activation
system.mem_ctrls.bytesPerActivate::0-127        18633     21.02%     21.02% # Bytes accessed per row activation
system.mem_ctrls.bytesPerActivate::128-255         9625     10.86%     31.87% # Bytes accessed per row activation
system.mem_ctrls.bytesPerActivate::256-383         4898      5.52%     37.40% # Bytes accessed per row activation
system.mem_ctrls.bytesPerActivate::384-511         3279      3.70%     41.10% # Bytes accessed per row activation
system.mem_ctrls.bytesPerActivate::512-639         2691      3.04%     44.13% # Bytes accessed per row activation
system.mem_ctrls.bytesPerActivate::640-767         2214      2.50%     46.63% # Bytes accessed per row activation
system.mem_ctrls.bytesPerActivate::768-895         2170      2.45%     49.08% # Bytes accessed per row activation
system.mem_ctrls.bytesPerActivate::896-1023         4999      5.64%     54.71% # Bytes accessed per row activation
system.mem_ctrls.bytesPerActivate::1024-1151        40149     45.29%    100.00% # Bytes accessed per row activation
system.mem_ctrls.bytesPerActivate::total        88658                       # Bytes accessed per row activation
system.mem_ctrls.rdPerTurnAround::samples        21904                       # Reads before turning the bus around for writes
system.mem_ctrls.rdPerTurnAround::mean      27.177000                       # Reads before turning the bus around for writes
system.mem_ctrls.rdPerTurnAround::stdev    868.562888                       # Reads before turning the bus around for writes
system.mem_ctrls.rdPerTurnAround::0-4095        21901     99.99%     99.99% # Reads before turning the bus around for writes
system.mem_ctrls.rdPerTurnAround::28672-32767            1      0.00%     99.99% # Reads before turning the bus around for writes
system.mem_ctrls.rdPerTurnAround::32768-36863            1      0.00%    100.00% # Reads before turning the bus around for writes
system.mem_ctrls.rdPerTurnAround::118784-122879            1      0.00%    100.00% # Reads before turning the bus around for writes
system.mem_ctrls.rdPerTurnAround::total         21904                       # Reads before turning the bus around for writes
system.mem_ctrls.wrPerTurnAround::samples        21904                       # Writes before turning the bus around for reads
system.mem_ctrls.wrPerTurnAround::mean      16.416728                       # Writes before turning the bus around for reads
system.mem_ctrls.wrPerTurnAround::gmean     16.326763                       # Writes before turning the bus around for reads
system.mem_ctrls.wrPerTurnAround::stdev      2.306653                       # Writes before turning the bus around for reads
system.mem_ctrls.wrPerTurnAround::16-17         20598     94.04%     94.04% # Writes before turning the bus around for reads
system.mem_ctrls.wrPerTurnAround::18-19           833      3.80%     97.84% # Writes before turning the bus around for reads
system.mem_ctrls.wrPerTurnAround::20-21           110      0.50%     98.34% # Writes before turning the bus around for reads
system.mem_ctrls.wrPerTurnAround::22-23            64      0.29%     98.63% # Writes before turning the bus around for reads
system.mem_ctrls.wrPerTurnAround::24-25            79      0.36%     99.00% # Writes before turning the bus around for reads
system.mem_ctrls.wrPerTurnAround::26-27            43      0.20%     99.19% # Writes before turning the bus around for reads
system.mem_ctrls.wrPerTurnAround::28-29            53      0.24%     99.43% # Writes before turning the bus around for reads
system.mem_ctrls.wrPerTurnAround::30-31            12      0.05%     99.49% # Writes before turning the bus around for reads
system.mem_ctrls.wrPerTurnAround::32-33             5      0.02%     99.51% # Writes before turning the bus around for reads
system.mem_ctrls.wrPerTurnAround::34-35            13      0.06%     99.57% # Writes before turning the bus around for reads
system.mem_ctrls.wrPerTurnAround::36-37            15      0.07%     99.64% # Writes before turning the bus around for reads
system.mem_ctrls.wrPerTurnAround::38-39            13      0.06%     99.70% # Writes before turning the bus around for reads
system.mem_ctrls.wrPerTurnAround::40-41            11      0.05%     99.75% # Writes before turning the bus around for reads
system.mem_ctrls.wrPerTurnAround::42-43             5      0.02%     99.77% # Writes before turning the bus around for reads
system.mem_ctrls.wrPerTurnAround::44-45             8      0.04%     99.81% # Writes before turning the bus around for reads
system.mem_ctrls.wrPerTurnAround::46-47            11      0.05%     99.86% # Writes before turning the bus around for reads
system.mem_ctrls.wrPerTurnAround::48-49            11      0.05%     99.91% # Writes before turning the bus around for reads
system.mem_ctrls.wrPerTurnAround::50-51             3      0.01%     99.92% # Writes before turning the bus around for reads
system.mem_ctrls.wrPerTurnAround::52-53             4      0.02%     99.94% # Writes before turning the bus around for reads
system.mem_ctrls.wrPerTurnAround::54-55             5      0.02%     99.96% # Writes before turning the bus around for reads
system.mem_ctrls.wrPerTurnAround::56-57             6      0.03%     99.99% # Writes before turning the bus around for reads
system.mem_ctrls.wrPerTurnAround::58-59             1      0.00%    100.00% # Writes before turning the bus around for reads
system.mem_ctrls.wrPerTurnAround::72-73             1      0.00%    100.00% # Writes before turning the bus around for reads
system.mem_ctrls.wrPerTurnAround::total         21904                       # Writes before turning the bus around for reads
system.mem_ctrls.totQLat                  19306827250                       # Total ticks spent queuing
system.mem_ctrls.totMemAccLat             28552103500                       # Total ticks spent from burst creation until serviced by the DRAM
system.mem_ctrls.totBusLat                 2976445000                       # Total ticks spent in databus transfers
system.mem_ctrls.totBankLat                6268831250                       # Total ticks spent accessing banks
system.mem_ctrls.avgQLat                     32432.70                       # Average queueing delay per DRAM burst
system.mem_ctrls.avgBankLat                  10530.74                       # Average bank access latency per DRAM burst
system.mem_ctrls.avgBusLat                    5000.00                       # Average bus latency per DRAM burst
system.mem_ctrls.avgMemAccLat                47963.43                       # Average memory access latency per DRAM burst
system.mem_ctrls.avgRdBW                        20.55                       # Average DRAM read bandwidth in MiByte/s
system.mem_ctrls.avgWrBW                        12.41                       # Average achieved write bandwidth in MiByte/s
system.mem_ctrls.avgRdBWSys                     20.56                       # Average system read bandwidth in MiByte/s
system.mem_ctrls.avgWrBWSys                     12.41                       # Average system write bandwidth in MiByte/s
system.mem_ctrls.peakBW                      12800.00                       # Theoretical peak bandwidth in MiByte/s
system.mem_ctrls.busUtil                         0.26                       # Data bus utilization in percentage
system.mem_ctrls.busUtilRead                     0.16                       # Data bus utilization in percentage for reads
system.mem_ctrls.busUtilWrite                    0.10                       # Data bus utilization in percentage for writes
system.mem_ctrls.avgRdQLen                       1.71                       # Average read queue length when enqueuing
system.mem_ctrls.avgWrQLen                      25.27                       # Average write queue length when enqueuing
system.mem_ctrls.readRowHits                   529328                       # Number of row buffer hits during reads
system.mem_ctrls.writeRowHits                  315746                       # Number of row buffer hits during writes
system.mem_ctrls.readRowHitRate                 88.92                       # Row buffer hit rate for reads
system.mem_ctrls.writeRowHitRate                87.80                       # Row buffer hit rate for writes
system.mem_ctrls.avgGap                    1941092.67                       # Average gap between requests
system.mem_ctrls.pageHitRate                    88.50                       # Row buffer hit rate, read and write combined
system.mem_ctrls.prechargeAllPercent             0.39                       # Percentage of time for which DRAM has all the banks in precharge state
system.membus.throughput                     33004984                       # Throughput (bytes/s)
system.membus.trans_dist::ReadReq              297218                       # Transaction distribution
system.membus.trans_dist::ReadResp             297143                       # Transaction distribution
system.membus.trans_dist::WriteReq               8865                       # Transaction distribution
system.membus.trans_dist::WriteResp              8865                       # Transaction distribution
system.membus.trans_dist::Writeback            359627                       # Transaction distribution
system.membus.trans_dist::UpgradeReq              173                       # Transaction distribution
system.membus.trans_dist::SCUpgradeReq              1                       # Transaction distribution
system.membus.trans_dist::UpgradeResp             174                       # Transaction distribution
system.membus.trans_dist::ReadExReq            305087                       # Transaction distribution
system.membus.trans_dist::ReadExResp           305087                       # Transaction distribution
system.membus.trans_dist::BadAddressError           75                       # Transaction distribution
system.membus.pkt_count_system.iocache.mem_side::system.mem_ctrls.port       129053                       # Packet count per connected master and slave (bytes)
system.membus.pkt_count_system.iocache.mem_side::total       129053                       # Packet count per connected master and slave (bytes)
system.membus.pkt_count_system.l2.mem_side::system.bridge.slave        30582                       # Packet count per connected master and slave (bytes)
system.membus.pkt_count_system.l2.mem_side::system.mem_ctrls.port      1422188                       # Packet count per connected master and slave (bytes)
system.membus.pkt_count_system.l2.mem_side::system.membus.badaddr_responder.pio          150                       # Packet count per connected master and slave (bytes)
system.membus.pkt_count_system.l2.mem_side::total      1452920                       # Packet count per connected master and slave (bytes)
system.membus.pkt_count::total                1581973                       # Packet count per connected master and slave (bytes)
system.membus.tot_pkt_size_system.iocache.mem_side::system.mem_ctrls.port      5496704                       # Cumulative packet size per connected master and slave (bytes)
system.membus.tot_pkt_size_system.iocache.mem_side::total      5496704                       # Cumulative packet size per connected master and slave (bytes)
system.membus.tot_pkt_size_system.l2.mem_side::system.bridge.slave        41026                       # Cumulative packet size per connected master and slave (bytes)
system.membus.tot_pkt_size_system.l2.mem_side::system.mem_ctrls.port     55628992                       # Cumulative packet size per connected master and slave (bytes)
system.membus.tot_pkt_size_system.l2.mem_side::total     55670018                       # Cumulative packet size per connected master and slave (bytes)
system.membus.tot_pkt_size::total            61166722                       # Cumulative packet size per connected master and slave (bytes)
system.membus.data_through_bus               61166722                       # Total data (bytes)
system.membus.snoop_data_through_bus            21888                       # Total snoop data (bytes)
system.membus.reqLayer0.occupancy            27603498                       # Layer occupancy (ticks)
system.membus.reqLayer0.utilization               0.0                       # Layer utilization (%)
system.membus.reqLayer1.occupancy          3982325000                       # Layer occupancy (ticks)
system.membus.reqLayer1.utilization               0.2                       # Layer utilization (%)
system.membus.reqLayer2.occupancy               95500                       # Layer occupancy (ticks)
system.membus.reqLayer2.utilization               0.0                       # Layer utilization (%)
system.membus.respLayer1.occupancy          389690750                       # Layer occupancy (ticks)
system.membus.respLayer1.utilization              0.0                       # Layer utilization (%)
system.membus.respLayer2.occupancy         5144008072                       # Layer occupancy (ticks)
system.membus.respLayer2.utilization              0.3                       # Layer utilization (%)
system.iocache.tags.replacements                43125                       # number of replacements
system.iocache.tags.tagsinuse                0.346288                       # Cycle average of tags in use
system.iocache.tags.total_refs                      1                       # Total number of references to valid blocks.
system.iocache.tags.sampled_refs                43125                       # Sample count of references to valid blocks.
system.iocache.tags.avg_refs                 0.000023                       # Average number of references to valid blocks.
system.iocache.tags.warmup_cycle         1711315588000                       # Cycle when the warmup percentage was hit.
system.iocache.tags.occ_blocks::tsunami.ide     0.346288                       # Average occupied blocks per requestor
system.iocache.tags.occ_percent::tsunami.ide     0.021643                       # Average percentage of cache occupancy
system.iocache.tags.occ_percent::total       0.021643                       # Average percentage of cache occupancy
system.iocache.tags.occ_task_id_blocks::1023           16                       # Occupied blocks per task id
system.iocache.tags.age_task_id_blocks_1023::3           16                       # Occupied blocks per task id
system.iocache.tags.occ_task_id_percent::1023            1                       # Percentage of cache occupancy per task id
system.iocache.tags.tag_accesses               388493                       # Number of tag accesses
system.iocache.tags.data_accesses              388493                       # Number of data accesses
system.iocache.ReadReq_misses::tsunami.ide          190                       # number of ReadReq misses
system.iocache.ReadReq_misses::total              190                       # number of ReadReq misses
system.iocache.WriteReq_misses::tsunami.ide        42976                       # number of WriteReq misses
system.iocache.WriteReq_misses::total           42976                       # number of WriteReq misses
system.iocache.demand_misses::tsunami.ide        43166                       # number of demand (read+write) misses
system.iocache.demand_misses::total             43166                       # number of demand (read+write) misses
system.iocache.overall_misses::tsunami.ide        43166                       # number of overall misses
system.iocache.overall_misses::total            43166                       # number of overall misses
system.iocache.ReadReq_miss_latency::tsunami.ide     33609121                       # number of ReadReq miss cycles
system.iocache.ReadReq_miss_latency::total     33609121                       # number of ReadReq miss cycles
system.iocache.WriteReq_miss_latency::tsunami.ide  13699982906                       # number of WriteReq miss cycles
system.iocache.WriteReq_miss_latency::total  13699982906                       # number of WriteReq miss cycles
system.iocache.demand_miss_latency::tsunami.ide  13733592027                       # number of demand (read+write) miss cycles
system.iocache.demand_miss_latency::total  13733592027                       # number of demand (read+write) miss cycles
system.iocache.overall_miss_latency::tsunami.ide  13733592027                       # number of overall miss cycles
system.iocache.overall_miss_latency::total  13733592027                       # number of overall miss cycles
system.iocache.ReadReq_accesses::tsunami.ide          190                       # number of ReadReq accesses(hits+misses)
system.iocache.ReadReq_accesses::total            190                       # number of ReadReq accesses(hits+misses)
system.iocache.WriteReq_accesses::tsunami.ide        42976                       # number of WriteReq accesses(hits+misses)
system.iocache.WriteReq_accesses::total         42976                       # number of WriteReq accesses(hits+misses)
system.iocache.demand_accesses::tsunami.ide        43166                       # number of demand (read+write) accesses
system.iocache.demand_accesses::total           43166                       # number of demand (read+write) accesses
system.iocache.overall_accesses::tsunami.ide        43166                       # number of overall (read+write) accesses
system.iocache.overall_accesses::total          43166                       # number of overall (read+write) accesses
system.iocache.ReadReq_miss_rate::tsunami.ide            1                       # miss rate for ReadReq accesses
system.iocache.ReadReq_miss_rate::total             1                       # miss rate for ReadReq accesses
system.iocache.WriteReq_miss_rate::tsunami.ide            1                       # miss rate for WriteReq accesses
system.iocache.WriteReq_miss_rate::total            1                       # miss rate for WriteReq accesses
system.iocache.demand_miss_rate::tsunami.ide            1                       # miss rate for demand accesses
system.iocache.demand_miss_rate::total              1                       # miss rate for demand accesses
system.iocache.overall_miss_rate::tsunami.ide            1                       # miss rate for overall accesses
system.iocache.overall_miss_rate::total             1                       # miss rate for overall accesses
system.iocache.ReadReq_avg_miss_latency::tsunami.ide 176890.110526                       # average ReadReq miss latency
system.iocache.ReadReq_avg_miss_latency::total 176890.110526                       # average ReadReq miss latency
system.iocache.WriteReq_avg_miss_latency::tsunami.ide 318782.178565                       # average WriteReq miss latency
system.iocache.WriteReq_avg_miss_latency::total 318782.178565                       # average WriteReq miss latency
system.iocache.demand_avg_miss_latency::tsunami.ide 318157.624681                       # average overall miss latency
system.iocache.demand_avg_miss_latency::total 318157.624681                       # average overall miss latency
system.iocache.overall_avg_miss_latency::tsunami.ide 318157.624681                       # average overall miss latency
system.iocache.overall_avg_miss_latency::total 318157.624681                       # average overall miss latency
system.iocache.blocked_cycles::no_mshrs        411621                       # number of cycles access was blocked
system.iocache.blocked_cycles::no_targets            0                       # number of cycles access was blocked
system.iocache.blocked::no_mshrs                29890                       # number of cycles access was blocked
system.iocache.blocked::no_targets                  0                       # number of cycles access was blocked
system.iocache.avg_blocked_cycles::no_mshrs    13.771194                       # average number of cycles each access was blocked
system.iocache.avg_blocked_cycles::no_targets          nan                       # average number of cycles each access was blocked
system.iocache.fast_writes                          0                       # number of fast writes performed
system.iocache.cache_copies                         0                       # number of cache copies performed
system.iocache.writebacks::writebacks           42935                       # number of writebacks
system.iocache.writebacks::total                42935                       # number of writebacks
system.iocache.ReadReq_mshr_misses::tsunami.ide          190                       # number of ReadReq MSHR misses
system.iocache.ReadReq_mshr_misses::total          190                       # number of ReadReq MSHR misses
system.iocache.WriteReq_mshr_misses::tsunami.ide        42976                       # number of WriteReq MSHR misses
system.iocache.WriteReq_mshr_misses::total        42976                       # number of WriteReq MSHR misses
system.iocache.demand_mshr_misses::tsunami.ide        43166                       # number of demand (read+write) MSHR misses
system.iocache.demand_mshr_misses::total        43166                       # number of demand (read+write) MSHR misses
system.iocache.overall_mshr_misses::tsunami.ide        43166                       # number of overall MSHR misses
system.iocache.overall_mshr_misses::total        43166                       # number of overall MSHR misses
system.iocache.ReadReq_mshr_miss_latency::tsunami.ide     23727121                       # number of ReadReq MSHR miss cycles
system.iocache.ReadReq_mshr_miss_latency::total     23727121                       # number of ReadReq MSHR miss cycles
system.iocache.WriteReq_mshr_miss_latency::tsunami.ide  11462823406                       # number of WriteReq MSHR miss cycles
system.iocache.WriteReq_mshr_miss_latency::total  11462823406                       # number of WriteReq MSHR miss cycles
system.iocache.demand_mshr_miss_latency::tsunami.ide  11486550527                       # number of demand (read+write) MSHR miss cycles
system.iocache.demand_mshr_miss_latency::total  11486550527                       # number of demand (read+write) MSHR miss cycles
system.iocache.overall_mshr_miss_latency::tsunami.ide  11486550527                       # number of overall MSHR miss cycles
system.iocache.overall_mshr_miss_latency::total  11486550527                       # number of overall MSHR miss cycles
system.iocache.ReadReq_mshr_miss_rate::tsunami.ide            1                       # mshr miss rate for ReadReq accesses
system.iocache.ReadReq_mshr_miss_rate::total            1                       # mshr miss rate for ReadReq accesses
system.iocache.WriteReq_mshr_miss_rate::tsunami.ide            1                       # mshr miss rate for WriteReq accesses
system.iocache.WriteReq_mshr_miss_rate::total            1                       # mshr miss rate for WriteReq accesses
system.iocache.demand_mshr_miss_rate::tsunami.ide            1                       # mshr miss rate for demand accesses
system.iocache.demand_mshr_miss_rate::total            1                       # mshr miss rate for demand accesses
system.iocache.overall_mshr_miss_rate::tsunami.ide            1                       # mshr miss rate for overall accesses
system.iocache.overall_mshr_miss_rate::total            1                       # mshr miss rate for overall accesses
system.iocache.ReadReq_avg_mshr_miss_latency::tsunami.ide 124879.584211                       # average ReadReq mshr miss latency
system.iocache.ReadReq_avg_mshr_miss_latency::total 124879.584211                       # average ReadReq mshr miss latency
system.iocache.WriteReq_avg_mshr_miss_latency::tsunami.ide 266726.158926                       # average WriteReq mshr miss latency
system.iocache.WriteReq_avg_mshr_miss_latency::total 266726.158926                       # average WriteReq mshr miss latency
system.iocache.demand_avg_mshr_miss_latency::tsunami.ide 266101.805287                       # average overall mshr miss latency
system.iocache.demand_avg_mshr_miss_latency::total 266101.805287                       # average overall mshr miss latency
system.iocache.overall_avg_mshr_miss_latency::tsunami.ide 266101.805287                       # average overall mshr miss latency
system.iocache.overall_avg_mshr_miss_latency::total 266101.805287                       # average overall mshr miss latency
system.iocache.no_allocate_misses                   0                       # Number of misses that were no-allocate
system.disk0.dma_read_full_pages                    0                       # Number of full page size DMA reads (not PRD).
system.disk0.dma_read_bytes                      4096                       # Number of bytes transfered via DMA reads (not PRD).
system.disk0.dma_read_txs                           1                       # Number of DMA read transactions (not PRD).
system.disk0.dma_write_full_pages                 316                       # Number of full page size DMA writes.
system.disk0.dma_write_bytes                  2742272                       # Number of bytes transfered via DMA writes.
system.disk0.dma_write_txs                        355                       # Number of DMA write transactions.
system.disk2.dma_read_full_pages                    0                       # Number of full page size DMA reads (not PRD).
system.disk2.dma_read_bytes                         0                       # Number of bytes transfered via DMA reads (not PRD).
system.disk2.dma_read_txs                           0                       # Number of DMA read transactions (not PRD).
system.disk2.dma_write_full_pages                   1                       # Number of full page size DMA writes.
system.disk2.dma_write_bytes                     8192                       # Number of bytes transfered via DMA writes.
system.disk2.dma_write_txs                          1                       # Number of DMA write transactions.
system.cpu.branchPred.lookups                16007530                       # Number of BP lookups
system.cpu.branchPred.condPredicted          13727197                       # Number of conditional branches predicted
system.cpu.branchPred.condIncorrect            385755                       # Number of conditional branches incorrect
system.cpu.branchPred.BTBLookups             10816458                       # Number of BTB lookups
system.cpu.branchPred.BTBHits                 7415848                       # Number of BTB hits
system.cpu.branchPred.BTBCorrect                    0                       # Number of correct BTB predictions (this stat may not work properly.
system.cpu.branchPred.BTBHitPct             68.560780                       # BTB Hit Percentage
system.cpu.branchPred.usedRAS                  906126                       # Number of times the RAS was used to get a target.
system.cpu.branchPred.RASInCorrect              35708                       # Number of incorrect RAS predictions.
system.cpu_voltage_domain.voltage                   1                       # Voltage in Volts
system.cpu_clk_domain.clock                       500                       # Clock period in ticks
system.cpu.dtb.fetch_hits                           0                       # ITB hits
system.cpu.dtb.fetch_misses                         0                       # ITB misses
system.cpu.dtb.fetch_acv                            0                       # ITB acv
system.cpu.dtb.fetch_accesses                       0                       # ITB accesses
system.cpu.dtb.read_hits                     11509313                       # DTB read hits
system.cpu.dtb.read_misses                      42711                       # DTB read misses
system.cpu.dtb.read_acv                           492                       # DTB read access violations
system.cpu.dtb.read_accesses                   942807                       # DTB read accesses
system.cpu.dtb.write_hits                     7749045                       # DTB write hits
system.cpu.dtb.write_misses                     10886                       # DTB write misses
system.cpu.dtb.write_acv                          420                       # DTB write access violations
system.cpu.dtb.write_accesses                  342695                       # DTB write accesses
system.cpu.dtb.data_hits                     19258358                       # DTB hits
system.cpu.dtb.data_misses                      53597                       # DTB misses
system.cpu.dtb.data_acv                           912                       # DTB access violations
system.cpu.dtb.data_accesses                  1285502                       # DTB accesses
system.cpu.itb.fetch_hits                     1288045                       # ITB hits
system.cpu.itb.fetch_misses                     29123                       # ITB misses
system.cpu.itb.fetch_acv                         1072                       # ITB acv
system.cpu.itb.fetch_accesses                 1317168                       # ITB accesses
system.cpu.itb.read_hits                            0                       # DTB read hits
system.cpu.itb.read_misses                          0                       # DTB read misses
system.cpu.itb.read_acv                             0                       # DTB read access violations
system.cpu.itb.read_accesses                        0                       # DTB read accesses
system.cpu.itb.write_hits                           0                       # DTB write hits
system.cpu.itb.write_misses                         0                       # DTB write misses
system.cpu.itb.write_acv                            0                       # DTB write access violations
system.cpu.itb.write_accesses                       0                       # DTB write accesses
system.cpu.itb.data_hits                            0                       # DTB hits
system.cpu.itb.data_misses                          0                       # DTB misses
system.cpu.itb.data_acv                             0                       # DTB access violations
system.cpu.itb.data_accesses                        0                       # DTB accesses
system.cpu.numCycles                        121084183                       # number of cpu cycles simulated
system.cpu.numWorkItemsStarted                      0                       # number of work items this cpu started
system.cpu.numWorkItemsCompleted                    0                       # number of work items this cpu completed
system.cpu.fetch.icacheStallCycles           26380128                       # Number of cycles fetch is stalled on an Icache miss
system.cpu.fetch.Insts                       84526263                       # Number of instructions fetch has processed
system.cpu.fetch.Branches                    16007530                       # Number of branches that fetch encountered
system.cpu.fetch.predictedBranches            8321974                       # Number of branches that fetch has predicted taken
system.cpu.fetch.Cycles                      15909606                       # Number of cycles fetch has run and was not squashing or blocked
system.cpu.fetch.SquashCycles                 2529000                       # Number of cycles fetch has spent squashing
system.cpu.fetch.BlockedCycles               48653834                       # Number of cycles fetch has spent blocked
system.cpu.fetch.MiscStallCycles                30824                       # Number of cycles fetch has spent waiting on interrupts, or bad addresses, or out of MSHRs
system.cpu.fetch.PendingTrapStallCycles        243988                       # Number of stall cycles due to pending traps
system.cpu.fetch.PendingQuiesceStallCycles       338647                       # Number of stall cycles due to pending quiesce instructions
system.cpu.fetch.IcacheWaitRetryStallCycles          271                       # Number of stall cycles due to full MSHR
system.cpu.fetch.CacheLines                  10031958                       # Number of cache lines fetched
system.cpu.fetch.IcacheSquashes                356105                       # Number of outstanding Icache misses that were squashed
system.cpu.fetch.rateDist::samples           93101335                       # Number of instructions fetched each cycle (Total)
system.cpu.fetch.rateDist::mean              0.907895                       # Number of instructions fetched each cycle (Total)
system.cpu.fetch.rateDist::stdev             2.240624                       # Number of instructions fetched each cycle (Total)
system.cpu.fetch.rateDist::underflows               0      0.00%      0.00% # Number of instructions fetched each cycle (Total)
system.cpu.fetch.rateDist::0                 77191729     82.91%     82.91% # Number of instructions fetched each cycle (Total)
system.cpu.fetch.rateDist::1                   912585      0.98%     83.89% # Number of instructions fetched each cycle (Total)
system.cpu.fetch.rateDist::2                  1939229      2.08%     85.97% # Number of instructions fetched each cycle (Total)
system.cpu.fetch.rateDist::3                   795687      0.85%     86.83% # Number of instructions fetched each cycle (Total)
system.cpu.fetch.rateDist::4                  4149348      4.46%     91.29% # Number of instructions fetched each cycle (Total)
system.cpu.fetch.rateDist::5                   608906      0.65%     91.94% # Number of instructions fetched each cycle (Total)
system.cpu.fetch.rateDist::6                   662855      0.71%     92.65% # Number of instructions fetched each cycle (Total)
system.cpu.fetch.rateDist::7                   998861      1.07%     93.72% # Number of instructions fetched each cycle (Total)
system.cpu.fetch.rateDist::8                  5842135      6.28%    100.00% # Number of instructions fetched each cycle (Total)
system.cpu.fetch.rateDist::overflows                0      0.00%    100.00% # Number of instructions fetched each cycle (Total)
system.cpu.fetch.rateDist::min_value                0                       # Number of instructions fetched each cycle (Total)
system.cpu.fetch.rateDist::max_value                8                       # Number of instructions fetched each cycle (Total)
system.cpu.fetch.rateDist::total             93101335                       # Number of instructions fetched each cycle (Total)
system.cpu.fetch.branchRate                  0.132202                       # Number of branch fetches per cycle
system.cpu.fetch.rate                        0.698078                       # Number of inst fetches per cycle
system.cpu.decode.IdleCycles                 28226116                       # Number of cycles decode is idle
system.cpu.decode.BlockedCycles              47825411                       # Number of cycles decode is blocked
system.cpu.decode.RunCycles                  14036325                       # Number of cycles decode is running
system.cpu.decode.UnblockCycles               1510882                       # Number of cycles decode is unblocking
system.cpu.decode.SquashCycles                1502600                       # Number of cycles decode is squashing
system.cpu.decode.BranchResolved               612894                       # Number of times decode resolved a branch
system.cpu.decode.BranchMispred                 41845                       # Number of times decode detected a branch misprediction
system.cpu.decode.DecodedInsts               82172163                       # Number of instructions handled by decode
system.cpu.decode.SquashedInsts                129044                       # Number of squashed instructions handled by decode
system.cpu.rename.SquashCycles                1502600                       # Number of cycles rename is squashing
system.cpu.rename.IdleCycles                 29758882                       # Number of cycles rename is idle
system.cpu.rename.BlockCycles                12395037                       # Number of cycles rename is blocking
system.cpu.rename.serializeStallCycles       30386318                       # count of cycles rename stalled for serializing inst
system.cpu.rename.RunCycles                  13589015                       # Number of cycles rename is running
system.cpu.rename.UnblockCycles               5469481                       # Number of cycles rename is unblocking
system.cpu.rename.RenamedInsts               77524015                       # Number of instructions processed by rename
system.cpu.rename.ROBFullEvents                 20604                       # Number of times rename has blocked due to ROB full
system.cpu.rename.IQFullEvents                 434682                       # Number of times rename has blocked due to IQ full
system.cpu.rename.LSQFullEvents               2857184                       # Number of times rename has blocked due to LSQ full
system.cpu.rename.RenamedOperands            51559031                       # Number of destination operands rename has renamed
system.cpu.rename.RenameLookups              94524494                       # Number of register rename lookups that rename has made
system.cpu.rename.int_rename_lookups         94346458                       # Number of integer rename lookups
system.cpu.rename.fp_rename_lookups            165678                       # Number of floating rename lookups
system.cpu.rename.CommittedMaps              43687309                       # Number of HB maps that are committed
system.cpu.rename.UndoneMaps                  7871714                       # Number of HB maps that are undone due to squashing
system.cpu.rename.serializingInsts            1771827                       # count of serializing insts renamed
system.cpu.rename.tempSerializingInsts         372004                       # count of temporary serializing insts renamed
system.cpu.rename.skidInsts                  14717108                       # count of insts added to the skid buffer
system.cpu.memDep0.insertedLoads             12017396                       # Number of loads inserted to the mem dependence unit.
system.cpu.memDep0.insertedStores             8284824                       # Number of stores inserted to the mem dependence unit.
system.cpu.memDep0.conflictingLoads           1428294                       # Number of conflicting loads.
system.cpu.memDep0.conflictingStores           869981                       # Number of conflicting stores.
system.cpu.iq.iqInstsAdded                   67724324                       # Number of instructions added to the IQ (excludes non-spec)
system.cpu.iq.iqNonSpecInstsAdded             2125592                       # Number of non-speculative instructions added to the IQ
system.cpu.iq.iqInstsIssued                  65884598                       # Number of instructions issued
system.cpu.iq.iqSquashedInstsIssued            112011                       # Number of squashed instructions issued
system.cpu.iq.iqSquashedInstsExamined         8348185                       # Number of squashed instructions iterated over during squash; mainly for profiling
system.cpu.iq.iqSquashedOperandsExamined      5100985                       # Number of squashed operands that are examined and possibly removed from graph
system.cpu.iq.iqSquashedNonSpecRemoved        1306091                       # Number of squashed non-spec instructions that were removed
system.cpu.iq.issued_per_cycle::samples      93101335                       # Number of insts issued each cycle
system.cpu.iq.issued_per_cycle::mean         0.707665                       # Number of insts issued each cycle
system.cpu.iq.issued_per_cycle::stdev        1.351736                       # Number of insts issued each cycle
system.cpu.iq.issued_per_cycle::underflows            0      0.00%      0.00% # Number of insts issued each cycle
system.cpu.iq.issued_per_cycle::0            64408944     69.18%     69.18% # Number of insts issued each cycle
system.cpu.iq.issued_per_cycle::1            12160785     13.06%     82.24% # Number of insts issued each cycle
system.cpu.iq.issued_per_cycle::2             6414205      6.89%     89.13% # Number of insts issued each cycle
system.cpu.iq.issued_per_cycle::3             4241965      4.56%     93.69% # Number of insts issued each cycle
system.cpu.iq.issued_per_cycle::4             2996250      3.22%     96.91% # Number of insts issued each cycle
system.cpu.iq.issued_per_cycle::5             1592096      1.71%     98.62% # Number of insts issued each cycle
system.cpu.iq.issued_per_cycle::6              858531      0.92%     99.54% # Number of insts issued each cycle
system.cpu.iq.issued_per_cycle::7              355630      0.38%     99.92% # Number of insts issued each cycle
system.cpu.iq.issued_per_cycle::8               72929      0.08%    100.00% # Number of insts issued each cycle
system.cpu.iq.issued_per_cycle::overflows            0      0.00%    100.00% # Number of insts issued each cycle
system.cpu.iq.issued_per_cycle::min_value            0                       # Number of insts issued each cycle
system.cpu.iq.issued_per_cycle::max_value            8                       # Number of insts issued each cycle
system.cpu.iq.issued_per_cycle::total        93101335                       # Number of insts issued each cycle
system.cpu.iq.fu_full::No_OpClass                   0      0.00%      0.00% # attempts to use FU when none available
system.cpu.iq.fu_full::IntAlu                   77564     10.68%     10.68% # attempts to use FU when none available
system.cpu.iq.fu_full::IntMult                      0      0.00%     10.68% # attempts to use FU when none available
system.cpu.iq.fu_full::IntDiv                       0      0.00%     10.68% # attempts to use FU when none available
system.cpu.iq.fu_full::FloatAdd                     0      0.00%     10.68% # attempts to use FU when none available
system.cpu.iq.fu_full::FloatCmp                     0      0.00%     10.68% # attempts to use FU when none available
system.cpu.iq.fu_full::FloatCvt                     0      0.00%     10.68% # attempts to use FU when none available
system.cpu.iq.fu_full::FloatMult                    0      0.00%     10.68% # attempts to use FU when none available
system.cpu.iq.fu_full::FloatDiv                     0      0.00%     10.68% # attempts to use FU when none available
system.cpu.iq.fu_full::FloatSqrt                    0      0.00%     10.68% # attempts to use FU when none available
system.cpu.iq.fu_full::SimdAdd                      0      0.00%     10.68% # attempts to use FU when none available
system.cpu.iq.fu_full::SimdAddAcc                   0      0.00%     10.68% # attempts to use FU when none available
system.cpu.iq.fu_full::SimdAlu                      0      0.00%     10.68% # attempts to use FU when none available
system.cpu.iq.fu_full::SimdCmp                      0      0.00%     10.68% # attempts to use FU when none available
system.cpu.iq.fu_full::SimdCvt                      0      0.00%     10.68% # attempts to use FU when none available
system.cpu.iq.fu_full::SimdMisc                     0      0.00%     10.68% # attempts to use FU when none available
system.cpu.iq.fu_full::SimdMult                     0      0.00%     10.68% # attempts to use FU when none available
system.cpu.iq.fu_full::SimdMultAcc                  0      0.00%     10.68% # attempts to use FU when none available
system.cpu.iq.fu_full::SimdShift                    0      0.00%     10.68% # attempts to use FU when none available
system.cpu.iq.fu_full::SimdShiftAcc                 0      0.00%     10.68% # attempts to use FU when none available
system.cpu.iq.fu_full::SimdSqrt                     0      0.00%     10.68% # attempts to use FU when none available
system.cpu.iq.fu_full::SimdFloatAdd                 0      0.00%     10.68% # attempts to use FU when none available
system.cpu.iq.fu_full::SimdFloatAlu                 0      0.00%     10.68% # attempts to use FU when none available
system.cpu.iq.fu_full::SimdFloatCmp                 0      0.00%     10.68% # attempts to use FU when none available
system.cpu.iq.fu_full::SimdFloatCvt                 0      0.00%     10.68% # attempts to use FU when none available
system.cpu.iq.fu_full::SimdFloatDiv                 0      0.00%     10.68% # attempts to use FU when none available
system.cpu.iq.fu_full::SimdFloatMisc                0      0.00%     10.68% # attempts to use FU when none available
system.cpu.iq.fu_full::SimdFloatMult                0      0.00%     10.68% # attempts to use FU when none available
system.cpu.iq.fu_full::SimdFloatMultAcc             0      0.00%     10.68% # attempts to use FU when none available
system.cpu.iq.fu_full::SimdFloatSqrt                0      0.00%     10.68% # attempts to use FU when none available
system.cpu.iq.fu_full::MemRead                 362299     49.87%     60.54% # attempts to use FU when none available
system.cpu.iq.fu_full::MemWrite                286673     39.46%    100.00% # attempts to use FU when none available
system.cpu.iq.fu_full::IprAccess                    0      0.00%    100.00% # attempts to use FU when none available
system.cpu.iq.fu_full::InstPrefetch                 0      0.00%    100.00% # attempts to use FU when none available
system.cpu.iq.FU_type_0::No_OpClass              7280      0.01%      0.01% # Type of FU issued
system.cpu.iq.FU_type_0::IntAlu              45050964     68.38%     68.39% # Type of FU issued
system.cpu.iq.FU_type_0::IntMult                61852      0.09%     68.48% # Type of FU issued
system.cpu.iq.FU_type_0::IntDiv                     0      0.00%     68.48% # Type of FU issued
system.cpu.iq.FU_type_0::FloatAdd               25511      0.04%     68.52% # Type of FU issued
system.cpu.iq.FU_type_0::FloatCmp                   0      0.00%     68.52% # Type of FU issued
system.cpu.iq.FU_type_0::FloatCvt                   0      0.00%     68.52% # Type of FU issued
system.cpu.iq.FU_type_0::FloatMult                  0      0.00%     68.52% # Type of FU issued
system.cpu.iq.FU_type_0::FloatDiv                3636      0.01%     68.53% # Type of FU issued
system.cpu.iq.FU_type_0::FloatSqrt                  0      0.00%     68.53% # Type of FU issued
system.cpu.iq.FU_type_0::SimdAdd                    0      0.00%     68.53% # Type of FU issued
system.cpu.iq.FU_type_0::SimdAddAcc                 0      0.00%     68.53% # Type of FU issued
system.cpu.iq.FU_type_0::SimdAlu                    0      0.00%     68.53% # Type of FU issued
system.cpu.iq.FU_type_0::SimdCmp                    0      0.00%     68.53% # Type of FU issued
system.cpu.iq.FU_type_0::SimdCvt                    0      0.00%     68.53% # Type of FU issued
system.cpu.iq.FU_type_0::SimdMisc                   0      0.00%     68.53% # Type of FU issued
system.cpu.iq.FU_type_0::SimdMult                   0      0.00%     68.53% # Type of FU issued
system.cpu.iq.FU_type_0::SimdMultAcc                0      0.00%     68.53% # Type of FU issued
system.cpu.iq.FU_type_0::SimdShift                  0      0.00%     68.53% # Type of FU issued
system.cpu.iq.FU_type_0::SimdShiftAcc               0      0.00%     68.53% # Type of FU issued
system.cpu.iq.FU_type_0::SimdSqrt                   0      0.00%     68.53% # Type of FU issued
system.cpu.iq.FU_type_0::SimdFloatAdd               0      0.00%     68.53% # Type of FU issued
system.cpu.iq.FU_type_0::SimdFloatAlu               0      0.00%     68.53% # Type of FU issued
system.cpu.iq.FU_type_0::SimdFloatCmp               0      0.00%     68.53% # Type of FU issued
system.cpu.iq.FU_type_0::SimdFloatCvt               0      0.00%     68.53% # Type of FU issued
system.cpu.iq.FU_type_0::SimdFloatDiv               0      0.00%     68.53% # Type of FU issued
system.cpu.iq.FU_type_0::SimdFloatMisc              0      0.00%     68.53% # Type of FU issued
system.cpu.iq.FU_type_0::SimdFloatMult              0      0.00%     68.53% # Type of FU issued
system.cpu.iq.FU_type_0::SimdFloatMultAcc            0      0.00%     68.53% # Type of FU issued
system.cpu.iq.FU_type_0::SimdFloatSqrt              0      0.00%     68.53% # Type of FU issued
system.cpu.iq.FU_type_0::MemRead             11984288     18.19%     86.72% # Type of FU issued
system.cpu.iq.FU_type_0::MemWrite             7827434     11.88%     98.60% # Type of FU issued
system.cpu.iq.FU_type_0::IprAccess             923633      1.40%    100.00% # Type of FU issued
system.cpu.iq.FU_type_0::InstPrefetch               0      0.00%    100.00% # Type of FU issued
system.cpu.iq.FU_type_0::total               65884598                       # Type of FU issued
system.cpu.iq.rate                           0.544122                       # Inst issue rate
system.cpu.iq.fu_busy_cnt                      726536                       # FU busy when requested
system.cpu.iq.fu_busy_rate                   0.011027                       # FU busy rate (busy events/executed inst)
system.cpu.iq.int_inst_queue_reads          224938640                       # Number of integer instruction queue reads
system.cpu.iq.int_inst_queue_writes          77830351                       # Number of integer instruction queue writes
system.cpu.iq.int_inst_queue_wakeup_accesses     63936800                       # Number of integer instruction queue wakeup accesses
system.cpu.iq.fp_inst_queue_reads              770437                       # Number of floating instruction queue reads
system.cpu.iq.fp_inst_queue_writes             381273                       # Number of floating instruction queue writes
system.cpu.iq.fp_inst_queue_wakeup_accesses       361718                       # Number of floating instruction queue wakeup accesses
system.cpu.iq.int_alu_accesses               66202993                       # Number of integer alu accesses
system.cpu.iq.fp_alu_accesses                  400861                       # Number of floating point alu accesses
system.cpu.iew.lsq.thread0.forwLoads           655556                       # Number of loads that had data forwarded from stores
system.cpu.iew.lsq.thread0.invAddrLoads             0                       # Number of loads ignored due to an invalid address
system.cpu.iew.lsq.thread0.squashedLoads      1650122                       # Number of loads squashed
system.cpu.iew.lsq.thread0.ignoredResponses         2922                       # Number of memory responses ignored because the instruction is squashed
system.cpu.iew.lsq.thread0.memOrderViolation        13834                       # Number of memory ordering violations
system.cpu.iew.lsq.thread0.squashedStores       748370                       # Number of stores squashed
system.cpu.iew.lsq.thread0.invAddrSwpfs             0                       # Number of software prefetches ignored due to an invalid address
system.cpu.iew.lsq.thread0.blockedLoads             0                       # Number of blocked loads due to partial load-store forwarding
system.cpu.iew.lsq.thread0.rescheduledLoads        17338                       # Number of loads that were rescheduled
system.cpu.iew.lsq.thread0.cacheBlocked        565052                       # Number of times an access to memory failed due to the cache being blocked
system.cpu.iew.iewIdleCycles                        0                       # Number of cycles IEW is idle
system.cpu.iew.iewSquashCycles                1502600                       # Number of cycles IEW is squashing
system.cpu.iew.iewBlockCycles                 7702309                       # Number of cycles IEW is blocking
system.cpu.iew.iewUnblockCycles                436551                       # Number of cycles IEW is unblocking
system.cpu.iew.iewDispatchedInsts            73985383                       # Number of instructions dispatched to IQ
system.cpu.iew.iewDispSquashedInsts           1947931                       # Number of squashed instructions skipped by dispatch
system.cpu.iew.iewDispLoadInsts              12017396                       # Number of dispatched load instructions
system.cpu.iew.iewDispStoreInsts              8284824                       # Number of dispatched store instructions
system.cpu.iew.iewDispNonSpecInsts            1843633                       # Number of dispatched non-speculative instructions
system.cpu.iew.iewIQFullEvents                 251475                       # Number of times the IQ has become full, causing a stall
system.cpu.iew.iewLSQFullEvents                 22587                       # Number of times the LSQ has become full, causing a stall
system.cpu.iew.memOrderViolationEvents          13834                       # Number of memory order violations
system.cpu.iew.predictedTakenIncorrect         195279                       # Number of branches that were predicted taken incorrectly
system.cpu.iew.predictedNotTakenIncorrect       393940                       # Number of branches that were predicted not taken incorrectly
system.cpu.iew.branchMispredicts               589219                       # Number of branch mispredicts detected at execute
system.cpu.iew.iewExecutedInsts              65084587                       # Number of executed instructions
system.cpu.iew.iewExecLoadInsts              11579956                       # Number of load instructions executed
system.cpu.iew.iewExecSquashedInsts            800010                       # Number of squashed instructions skipped in execute
system.cpu.iew.exec_swp                             0                       # number of swp insts executed
system.cpu.iew.exec_nop                       4135467                       # number of nop insts executed
system.cpu.iew.exec_refs                     19355002                       # number of memory reference insts executed
system.cpu.iew.exec_branches                 10550585                       # Number of branches executed
system.cpu.iew.exec_stores                    7775046                       # Number of stores executed
system.cpu.iew.exec_rate                     0.537515                       # Inst execution rate
system.cpu.iew.wb_sent                       64413545                       # cumulative count of insts sent to commit
system.cpu.iew.wb_count                      64298518                       # cumulative count of insts written-back
system.cpu.iew.wb_producers                  31378006                       # num instructions producing a value
system.cpu.iew.wb_consumers                  41241544                       # num instructions consuming a value
system.cpu.iew.wb_penalized                         0                       # number of instrctions required to write to 'other' IQ
system.cpu.iew.wb_rate                       0.531023                       # insts written-back per cycle
system.cpu.iew.wb_fanout                     0.760835                       # average fanout of values written-back
system.cpu.iew.wb_penalized_rate                    0                       # fraction of instructions written-back that wrote to 'other' IQ
system.cpu.commit.commitSquashedInsts         8840416                       # The number of squashed insts skipped by commit
system.cpu.commit.commitNonSpecStalls          819501                       # The number of times commit has been forced to stall to communicate backwards
system.cpu.commit.branchMispredicts            545566                       # The number of times a branch was mispredicted
system.cpu.commit.committed_per_cycle::samples     91598735                       # Number of insts commited each cycle
system.cpu.commit.committed_per_cycle::mean     0.709750                       # Number of insts commited each cycle
system.cpu.commit.committed_per_cycle::stdev     1.654167                       # Number of insts commited each cycle
system.cpu.commit.committed_per_cycle::underflows            0      0.00%      0.00% # Number of insts commited each cycle
system.cpu.commit.committed_per_cycle::0     67953054     74.19%     74.19% # Number of insts commited each cycle
[...]
system.cpu.dcache.demand_miss_latency::total    664161687                       # number of demand (read+write) miss cycles
system.cpu.dcache.overall_miss_latency::cpu.data    664161687                       # number of overall miss cycles
system.cpu.dcache.overall_miss_latency::total    664161687                       # number of overall miss cycles
system.cpu.dcache.ReadReq_accesses::cpu.data       165966                       # number of ReadReq accesses(hits+misses)
system.cpu.dcache.ReadReq_accesses::total       165966                       # number of ReadReq accesses(hits+misses)
system.cpu.dcache.WriteReq_accesses::cpu.data       105159                       # number of WriteReq accesses(hits+misses)
system.cpu.dcache.WriteReq_accesses::total       105159                       # number of WriteReq accesses(hits+misses)
system.cpu.dcache.LoadLockedReq_accesses::cpu.data         4501                       # number of LoadLockedReq accesses(hits+misses)
system.cpu.dcache.LoadLockedReq_accesses::total         4501                       # number of LoadLockedReq accesses(hits+misses)
system.cpu.dcache.StoreCondReq_accesses::cpu.data         4069                       # number of StoreCondReq accesses(hits+misses)
system.cpu.dcache.StoreCondReq_accesses::total         4069                       # number of StoreCondReq accesses(hits+misses)
system.cpu.dcache.demand_accesses::cpu.data       271125                       # number of demand (read+write) accesses
system.cpu.dcache.demand_accesses::total       271125                       # number of demand (read+write) accesses
system.cpu.dcache.overall_accesses::cpu.data       271125                       # number of overall (read+write) accesses
system.cpu.dcache.overall_accesses::total       271125                       # number of overall (read+write) accesses
system.cpu.dcache.ReadReq_miss_rate::cpu.data     0.096279                       # miss rate for ReadReq accesses
system.cpu.dcache.ReadReq_miss_rate::total     0.096279                       # miss rate for ReadReq accesses
system.cpu.dcache.WriteReq_miss_rate::cpu.data     0.235995                       # miss rate for WriteReq accesses
system.cpu.dcache.WriteReq_miss_rate::total     0.235995                       # miss rate for WriteReq accesses
system.cpu.dcache.LoadLockedReq_miss_rate::cpu.data     0.080427                       # miss rate for LoadLockedReq accesses
system.cpu.dcache.LoadLockedReq_miss_rate::total     0.080427                       # miss rate for LoadLockedReq accesses
system.cpu.dcache.demand_miss_rate::cpu.data     0.150469                       # miss rate for demand accesses
system.cpu.dcache.demand_miss_rate::total     0.150469                       # miss rate for demand accesses
system.cpu.dcache.overall_miss_rate::cpu.data     0.150469                       # miss rate for overall accesses
system.cpu.dcache.overall_miss_rate::total     0.150469                       # miss rate for overall accesses
system.cpu.dcache.ReadReq_avg_miss_latency::cpu.data 21397.193504                       # average ReadReq miss latency
system.cpu.dcache.ReadReq_avg_miss_latency::total 21397.193504                       # average ReadReq miss latency
system.cpu.dcache.WriteReq_avg_miss_latency::cpu.data 12985.289600                       # average WriteReq miss latency
system.cpu.dcache.WriteReq_avg_miss_latency::total 12985.289600                       # average WriteReq miss latency
system.cpu.dcache.LoadLockedReq_avg_miss_latency::cpu.data 12582.182320                       # average LoadLockedReq miss latency
system.cpu.dcache.LoadLockedReq_avg_miss_latency::total 12582.182320                       # average LoadLockedReq miss latency
system.cpu.dcache.demand_avg_miss_latency::cpu.data 16280.068806                       # average overall miss latency
system.cpu.dcache.demand_avg_miss_latency::total 16280.068806                       # average overall miss latency
system.cpu.dcache.overall_avg_miss_latency::cpu.data 16280.068806                       # average overall miss latency
system.cpu.dcache.overall_avg_miss_latency::total 16280.068806                       # average overall miss latency
system.cpu.dcache.blocked_cycles::no_mshrs         2890                       # number of cycles access was blocked
system.cpu.dcache.blocked_cycles::no_targets            0                       # number of cycles access was blocked
system.cpu.dcache.blocked::no_mshrs               392                       # number of cycles access was blocked
system.cpu.dcache.blocked::no_targets               0                       # number of cycles access was blocked
system.cpu.dcache.avg_blocked_cycles::no_mshrs     7.372449                       # average number of cycles each access was blocked
system.cpu.dcache.avg_blocked_cycles::no_targets          nan                       # average number of cycles each access was blocked
system.cpu.dcache.fast_writes                       0                       # number of fast writes performed
system.cpu.dcache.cache_copies                      0                       # number of cache copies performed
system.cpu.dcache.writebacks::writebacks         7914                       # number of writebacks
system.cpu.dcache.writebacks::total              7914                       # number of writebacks
system.cpu.dcache.ReadReq_mshr_hits::cpu.data        10352                       # number of ReadReq MSHR hits
system.cpu.dcache.ReadReq_mshr_hits::total        10352                       # number of ReadReq MSHR hits
system.cpu.dcache.WriteReq_mshr_hits::cpu.data        21190                       # number of WriteReq MSHR hits
system.cpu.dcache.WriteReq_mshr_hits::total        21190                       # number of WriteReq MSHR hits
system.cpu.dcache.LoadLockedReq_mshr_hits::cpu.data          186                       # number of LoadLockedReq MSHR hits
system.cpu.dcache.LoadLockedReq_mshr_hits::total          186                       # number of LoadLockedReq MSHR hits
system.cpu.dcache.demand_mshr_hits::cpu.data        31542                       # number of demand (read+write) MSHR hits
system.cpu.dcache.demand_mshr_hits::total        31542                       # number of demand (read+write) MSHR hits
system.cpu.dcache.overall_mshr_hits::cpu.data        31542                       # number of overall MSHR hits
system.cpu.dcache.overall_mshr_hits::total        31542                       # number of overall MSHR hits
system.cpu.dcache.ReadReq_mshr_misses::cpu.data         5627                       # number of ReadReq MSHR misses
system.cpu.dcache.ReadReq_mshr_misses::total         5627                       # number of ReadReq MSHR misses
system.cpu.dcache.WriteReq_mshr_misses::cpu.data         3627                       # number of WriteReq MSHR misses
system.cpu.dcache.WriteReq_mshr_misses::total         3627                       # number of WriteReq MSHR misses
system.cpu.dcache.LoadLockedReq_mshr_misses::cpu.data          176                       # number of LoadLockedReq MSHR misses
system.cpu.dcache.LoadLockedReq_mshr_misses::total          176                       # number of LoadLockedReq MSHR misses
system.cpu.dcache.demand_mshr_misses::cpu.data         9254                       # number of demand (read+write) MSHR misses
system.cpu.dcache.demand_mshr_misses::total         9254                       # number of demand (read+write) MSHR misses
system.cpu.dcache.overall_mshr_misses::cpu.data         9254                       # number of overall MSHR misses
system.cpu.dcache.overall_mshr_misses::total         9254                       # number of overall MSHR misses
system.cpu.dcache.ReadReq_mshr_miss_latency::cpu.data     89949250                       # number of ReadReq MSHR miss cycles
system.cpu.dcache.ReadReq_mshr_miss_latency::total     89949250                       # number of ReadReq MSHR miss cycles
system.cpu.dcache.WriteReq_mshr_miss_latency::cpu.data     43805991                       # number of WriteReq MSHR miss cycles
system.cpu.dcache.WriteReq_mshr_miss_latency::total     43805991                       # number of WriteReq MSHR miss cycles
system.cpu.dcache.LoadLockedReq_mshr_miss_latency::cpu.data      2026250                       # number of LoadLockedReq MSHR miss cycles
system.cpu.dcache.LoadLockedReq_mshr_miss_latency::total      2026250                       # number of LoadLockedReq MSHR miss cycles
system.cpu.dcache.demand_mshr_miss_latency::cpu.data    133755241                       # number of demand (read+write) MSHR miss cycles
system.cpu.dcache.demand_mshr_miss_latency::total    133755241                       # number of demand (read+write) MSHR miss cycles
system.cpu.dcache.overall_mshr_miss_latency::cpu.data    133755241                       # number of overall MSHR miss cycles
system.cpu.dcache.overall_mshr_miss_latency::total    133755241                       # number of overall MSHR miss cycles
system.cpu.dcache.ReadReq_mshr_uncacheable_latency::cpu.data     79881000                       # number of ReadReq MSHR uncacheable cycles
system.cpu.dcache.ReadReq_mshr_uncacheable_latency::total     79881000                       # number of ReadReq MSHR uncacheable cycles
system.cpu.dcache.WriteReq_mshr_uncacheable_latency::cpu.data     52594000                       # number of WriteReq MSHR uncacheable cycles
system.cpu.dcache.WriteReq_mshr_uncacheable_latency::total     52594000                       # number of WriteReq MSHR uncacheable cycles
system.cpu.dcache.overall_mshr_uncacheable_latency::cpu.data    132475000                       # number of overall MSHR uncacheable cycles
system.cpu.dcache.overall_mshr_uncacheable_latency::total    132475000                       # number of overall MSHR uncacheable cycles
system.cpu.dcache.ReadReq_mshr_miss_rate::cpu.data     0.033905                       # mshr miss rate for ReadReq accesses
system.cpu.dcache.ReadReq_mshr_miss_rate::total     0.033905                       # mshr miss rate for ReadReq accesses
system.cpu.dcache.WriteReq_mshr_miss_rate::cpu.data     0.034491                       # mshr miss rate for WriteReq accesses
system.cpu.dcache.WriteReq_mshr_miss_rate::total     0.034491                       # mshr miss rate for WriteReq accesses
system.cpu.dcache.LoadLockedReq_mshr_miss_rate::cpu.data     0.039102                       # mshr miss rate for LoadLockedReq accesses
system.cpu.dcache.LoadLockedReq_mshr_miss_rate::total     0.039102                       # mshr miss rate for LoadLockedReq accesses
system.cpu.dcache.demand_mshr_miss_rate::cpu.data     0.034132                       # mshr miss rate for demand accesses
system.cpu.dcache.demand_mshr_miss_rate::total     0.034132                       # mshr miss rate for demand accesses
system.cpu.dcache.overall_mshr_miss_rate::cpu.data     0.034132                       # mshr miss rate for overall accesses
system.cpu.dcache.overall_mshr_miss_rate::total     0.034132                       # mshr miss rate for overall accesses
system.cpu.dcache.ReadReq_avg_mshr_miss_latency::cpu.data 15985.294118                       # average ReadReq mshr miss latency
system.cpu.dcache.ReadReq_avg_mshr_miss_latency::total 15985.294118                       # average ReadReq mshr miss latency
system.cpu.dcache.WriteReq_avg_mshr_miss_latency::cpu.data 12077.747725                       # average WriteReq mshr miss latency
system.cpu.dcache.WriteReq_avg_mshr_miss_latency::total 12077.747725                       # average WriteReq mshr miss latency
system.cpu.dcache.LoadLockedReq_avg_mshr_miss_latency::cpu.data 11512.784091                       # average LoadLockedReq mshr miss latency
system.cpu.dcache.LoadLockedReq_avg_mshr_miss_latency::total 11512.784091                       # average LoadLockedReq mshr miss latency
system.cpu.dcache.demand_avg_mshr_miss_latency::cpu.data 14453.775773                       # average overall mshr miss latency
system.cpu.dcache.demand_avg_mshr_miss_latency::total 14453.775773                       # average overall mshr miss latency
system.cpu.dcache.overall_avg_mshr_miss_latency::cpu.data 14453.775773                       # average overall mshr miss latency
system.cpu.dcache.overall_avg_mshr_miss_latency::total 14453.775773                       # average overall mshr miss latency
system.cpu.dcache.ReadReq_avg_mshr_uncacheable_latency::cpu.data          inf                       # average ReadReq mshr uncacheable latency
system.cpu.dcache.ReadReq_avg_mshr_uncacheable_latency::total          inf                       # average ReadReq mshr uncacheable latency
system.cpu.dcache.WriteReq_avg_mshr_uncacheable_latency::cpu.data          inf                       # average WriteReq mshr uncacheable latency
system.cpu.dcache.WriteReq_avg_mshr_uncacheable_latency::total          inf                       # average WriteReq mshr uncacheable latency
system.cpu.dcache.overall_avg_mshr_uncacheable_latency::cpu.data          inf                       # average overall mshr uncacheable latency
system.cpu.dcache.overall_avg_mshr_uncacheable_latency::total          inf                       # average overall mshr uncacheable latency
system.cpu.dcache.no_allocate_misses                0                       # Number of misses that were no-allocate
system.cpu.kern.inst.arm                            0                       # number of arm instructions executed
system.cpu.kern.inst.quiesce                       39                       # number of quiesce instructions executed
system.cpu.kern.inst.hwrei                       4221                       # number of hwrei instructions executed
system.cpu.kern.ipl_count::0                     1299     43.39%     43.39% # number of times we switched to this ipl
system.cpu.kern.ipl_count::21                      14      0.47%     43.85% # number of times we switched to this ipl
system.cpu.kern.ipl_count::22                       1      0.03%     43.89% # number of times we switched to this ipl
system.cpu.kern.ipl_count::31                    1680     56.11%    100.00% # number of times we switched to this ipl
system.cpu.kern.ipl_count::total                 2994                       # number of times we switched to this ipl
system.cpu.kern.ipl_good::0                      1297     49.71%     49.71% # number of times we switched to this ipl from a different ipl
system.cpu.kern.ipl_good::21                       14      0.54%     50.25% # number of times we switched to this ipl from a different ipl
system.cpu.kern.ipl_good::22                        1      0.04%     50.29% # number of times we switched to this ipl from a different ipl
system.cpu.kern.ipl_good::31                     1297     49.71%    100.00% # number of times we switched to this ipl from a different ipl
system.cpu.kern.ipl_good::total                  2609                       # number of times we switched to this ipl from a different ipl
system.cpu.kern.ipl_ticks::0                718469500     77.65%     77.65% # number of cycles we spent at this ipl
system.cpu.kern.ipl_ticks::21                 7410000      0.80%     78.45% # number of cycles we spent at this ipl
system.cpu.kern.ipl_ticks::22                  389500      0.04%     78.49% # number of cycles we spent at this ipl
system.cpu.kern.ipl_ticks::31               198995000     21.51%    100.00% # number of cycles we spent at this ipl
system.cpu.kern.ipl_ticks::total            925264000                       # number of cycles we spent at this ipl
system.cpu.kern.ipl_used::0                  0.998460                       # fraction of swpipl calls that actually changed the ipl
system.cpu.kern.ipl_used::21                        1                       # fraction of swpipl calls that actually changed the ipl
system.cpu.kern.ipl_used::22                        1                       # fraction of swpipl calls that actually changed the ipl
system.cpu.kern.ipl_used::31                 0.772024                       # fraction of swpipl calls that actually changed the ipl
system.cpu.kern.ipl_used::total              0.871409                       # fraction of swpipl calls that actually changed the ipl
system.cpu.kern.syscall::2                          1      8.33%      8.33% # number of syscalls executed
system.cpu.kern.syscall::3                          1      8.33%     16.67% # number of syscalls executed
system.cpu.kern.syscall::4                          2     16.67%     33.33% # number of syscalls executed
system.cpu.kern.syscall::6                          1      8.33%     41.67% # number of syscalls executed
system.cpu.kern.syscall::17                         2     16.67%     58.33% # number of syscalls executed
system.cpu.kern.syscall::19                         1      8.33%     66.67% # number of syscalls executed
system.cpu.kern.syscall::48                         1      8.33%     75.00% # number of syscalls executed
system.cpu.kern.syscall::59                         1      8.33%     83.33% # number of syscalls executed
system.cpu.kern.syscall::256                        1      8.33%     91.67% # number of syscalls executed
system.cpu.kern.syscall::257                        1      8.33%    100.00% # number of syscalls executed
system.cpu.kern.syscall::total                     12                       # number of syscalls executed
system.cpu.kern.callpal::swpctx                    85      2.59%      2.59% # number of callpals executed
system.cpu.kern.callpal::tbi                        7      0.21%      2.81% # number of callpals executed
system.cpu.kern.callpal::swpipl                  2856     87.18%     89.99% # number of callpals executed
system.cpu.kern.callpal::rdps                     172      5.25%     95.24% # number of callpals executed
system.cpu.kern.callpal::wrusp                      1      0.03%     95.27% # number of callpals executed
system.cpu.kern.callpal::rdusp                      1      0.03%     95.30% # number of callpals executed
system.cpu.kern.callpal::rti                      123      3.75%     99.05% # number of callpals executed
system.cpu.kern.callpal::callsys                   31      0.95%    100.00% # number of callpals executed
system.cpu.kern.callpal::total                   3276                       # number of callpals executed
system.cpu.kern.mode_switch::kernel               193                       # number of protection mode switches
system.cpu.kern.mode_switch::user                 107                       # number of protection mode switches
system.cpu.kern.mode_switch::idle                  15                       # number of protection mode switches
system.cpu.kern.mode_good::kernel                 113                      
system.cpu.kern.mode_good::user                   107                      
system.cpu.kern.mode_good::idle                     6                      
system.cpu.kern.mode_switch_good::kernel     0.585492                       # fraction of useful protection mode switches
system.cpu.kern.mode_switch_good::user              1                       # fraction of useful protection mode switches
system.cpu.kern.mode_switch_good::idle       0.400000                       # fraction of useful protection mode switches
system.cpu.kern.mode_switch_good::total      0.717460                       # fraction of useful protection mode switches
system.cpu.kern.mode_ticks::kernel          533101000     57.62%     57.62% # number of ticks spent at the given mode
system.cpu.kern.mode_ticks::user            145477500     15.72%     73.34% # number of ticks spent at the given mode
system.cpu.kern.mode_ticks::idle            246685500     26.66%    100.00% # number of ticks spent at the given mode
system.cpu.kern.swap_context                       85                       # number of times the context was actually changed

---------- End Simulation Statistics   ----------
