
---------- Begin Simulation Statistics ----------
sim_seconds                                  1.853524                       # Number of seconds simulated
sim_ticks                                1853523837000                       # Number of ticks simulated
final_tick                               1853523837000                       # Number of ticks from beginning of simulation (restored from checkpoints and never reset)
sim_freq                                 1000000000000                       # Frequency of simulated ticks
host_inst_rate                                 163737                       # Simulator instruction rate (inst/s)
host_op_rate                                   163737                       # Simulator op (including micro ops) rate (op/s)
host_tick_rate                             4904706265                       # Simulator tick rate (ticks/s)
host_mem_usage                                 821716                       # Number of bytes of host memory used
host_seconds                                   377.91                       # Real time elapsed on the host
sim_insts                                    61877553                       # Number of instructions simulated
sim_ops                                      61877553                       # Number of ops (including micro ops) simulated
system.voltage_domain.voltage                       1                       # Voltage in Volts
system.clk_domain.clock                          1000                       # Clock period in ticks
system.mem_ctrls.bytes_read::cpu.inst         1236928                       # Number of bytes read from this memory
system.mem_ctrls.bytes_read::cpu.data        34185216                       # Number of bytes read from this memory
system.mem_ctrls.bytes_read::tsunami.ide      2748864                       # Number of bytes read from this memory
system.mem_ctrls.bytes_read::total           38171008                       # Number of bytes read from this memory
system.mem_ctrls.bytes_inst_read::cpu.inst      1236928                       # Number of instructions bytes read from this memory
system.mem_ctrls.bytes_inst_read::total       1236928                       # Number of instructions bytes read from this memory
system.mem_ctrls.bytes_written::writebacks     23011072                       # Number of bytes written to this memory
system.mem_ctrls.bytes_written::total        23011072                       # Number of bytes written to this memory
system.mem_ctrls.num_reads::cpu.inst            19327                       # Number of read requests responded to by this memory
system.mem_ctrls.num_reads::cpu.data           534144                       # Number of read requests responded to by this memory
system.mem_ctrls.num_reads::tsunami.ide         42951                       # Number of read requests responded to by this memory
system.mem_ctrls.num_reads::total              596422                       # Number of read requests responded to by this memory
system.mem_ctrls.num_writes::writebacks        359548                       # Number of write requests responded to by this memory
system.mem_ctrls.num_writes::total             359548                       # Number of write requests responded to by this memory
system.mem_ctrls.bw_read::cpu.inst             667339                       # Total read bandwidth from this memory (bytes/s)
system.mem_ctrls.bw_read::cpu.data           18443365                       # Total read bandwidth from this memory (bytes/s)
system.mem_ctrls.bw_read::tsunami.ide         1483048                       # Total read bandwidth from this memory (bytes/s)
system.mem_ctrls.bw_read::total              20593751                       # Total read bandwidth from this memory (bytes/s)
system.mem_ctrls.bw_inst_read::cpu.inst        667339                       # Instruction read bandwidth from this memory (bytes/s)
system.mem_ctrls.bw_inst_read::total           667339                       # Instruction read bandwidth from this memory (bytes/s)
system.mem_ctrls.bw_write::writebacks        12414770                       # Write bandwidth from this memory (bytes/s)
system.mem_ctrls.bw_write::total             12414770                       # Write bandwidth from this memory (bytes/s)
system.mem_ctrls.bw_total::writebacks        12414770                       # Total bandwidth to/from this memory (bytes/s)
system.mem_ctrls.bw_total::cpu.inst            667339                       # Total bandwidth to/from this memory (bytes/s)
system.mem_ctrls.bw_total::cpu.data          18443365                       # Total bandwidth to/from this memory (bytes/s)
system.mem_ctrls.bw_total::tsunami.ide        1483048                       # Total bandwidth to/from this memory (bytes/s)
system.mem_ctrls.bw_total::total             33008521                       # Total bandwidth to/from this memory (bytes/s)
system.mem_ctrls.readReqs                      596422                       # Number of read requests accepted
system.mem_ctrls.writeReqs                     359548                       # Number of write requests accepted
system.mem_ctrls.readBursts                    596422                       # Number of DRAM read bursts, including those serviced by the write queue
system.mem_ctrls.writeBursts                   359548                       # Number of DRAM write bursts, including those merged in the write queue
system.mem_ctrls.bytesReadDRAM               38160192                       # Total number of bytes read from DRAM
system.mem_ctrls.bytesReadWrQ                   10816                       # Total number of bytes read from write queue
system.mem_ctrls.bytesWritten                23010304                       # Total number of bytes written to DRAM
system.mem_ctrls.bytesReadSys                38171008                       # Total read bytes from the system interface side
system.mem_ctrls.bytesWrittenSys             23011072                       # Total written bytes from the system interface side
system.mem_ctrls.servicedByWrQ                    169                       # Number of DRAM read bursts serviced by the write queue
system.mem_ctrls.mergedWrBursts                    12                       # Number of DRAM write bursts merged with an existing one
system.mem_ctrls.neitherReadNorWriteReqs          175                       # Number of requests that are neither read nor write
system.mem_ctrls.perBankRdBursts::0             37206                       # Per bank write bursts
system.mem_ctrls.perBankRdBursts::1             37089                       # Per bank write bursts
system.mem_ctrls.perBankRdBursts::2             37900                       # Per bank write bursts
system.mem_ctrls.perBankRdBursts::3             38670                       # Per bank write bursts
system.mem_ctrls.perBankRdBursts::4             37292                       # Per bank write bursts
system.mem_ctrls.perBankRdBursts::5             37963                       # Per bank write bursts
system.mem_ctrls.perBankRdBursts::6             36424                       # Per bank write bursts
system.mem_ctrls.perBankRdBursts::7             36760                       # Per bank write bursts
system.mem_ctrls.perBankRdBursts::8             36970                       # Per bank write bursts
system.mem_ctrls.perBankRdBursts::9             37022                       # Per bank write bursts
system.mem_ctrls.perBankRdBursts::10            36774                       # Per bank write bursts
system.mem_ctrls.perBankRdBursts::11            36854                       # Per bank write bursts
system.mem_ctrls.perBankRdBursts::12            36789                       # Per bank write bursts
system.mem_ctrls.perBankRdBursts::13            37661                       # Per bank write bursts
system.mem_ctrls.perBankRdBursts::14            37993                       # Per bank write bursts
system.mem_ctrls.perBankRdBursts::15            36886                       # Per bank write bursts
system.mem_ctrls.perBankWrBursts::0             22309                       # Per bank write bursts
system.mem_ctrls.perBankWrBursts::1             22413                       # Per bank write bursts
system.mem_ctrls.perBankWrBursts::2             22843                       # Per bank write bursts
system.mem_ctrls.perBankWrBursts::3             23337                       # Per bank write bursts
system.mem_ctrls.perBankWrBursts::4             22480                       # Per bank write bursts
system.mem_ctrls.perBankWrBursts::5             23531                       # Per bank write bursts
system.mem_ctrls.perBankWrBursts::6             22218                       # Per bank write bursts
system.mem_ctrls.perBankWrBursts::7             22282                       # Per bank write bursts
system.mem_ctrls.perBankWrBursts::8             22235                       # Per bank write bursts
system.mem_ctrls.perBankWrBursts::9             22079                       # Per bank write bursts
system.mem_ctrls.perBankWrBursts::10            21982                       # Per bank write bursts
system.mem_ctrls.perBankWrBursts::11            22015                       # Per bank write bursts
system.mem_ctrls.perBankWrBursts::12            22081                       # Per bank write bursts
system.mem_ctrls.perBankWrBursts::13            22539                       # Per bank write bursts
system.mem_ctrls.perBankWrBursts::14            22713                       # Per bank write bursts
system.mem_ctrls.perBankWrBursts::15            22479                       # Per bank write bursts
system.mem_ctrls.numRdRetry                         0                       # Number of times read queue was full causing retry
system.mem_ctrls.numWrRetry                        11                       # Number of times write queue was full causing retry
system.mem_ctrls.totGap                  1853519446000                       # Total gap between requests
system.mem_ctrls.readPktSize::0                     0                       # Read request sizes (log2)
system.mem_ctrls.readPktSize::1                     0                       # Read request sizes (log2)
system.mem_ctrls.readPktSize::2                     0                       # Read request sizes (log2)
system.mem_ctrls.readPktSize::3                     0                       # Read request sizes (log2)
system.mem_ctrls.readPktSize::4                     0                       # Read request sizes (log2)
system.mem_ctrls.readPktSize::5                     0                       # Read request sizes (log2)
system.mem_ctrls.readPktSize::6                596422                       # Read request sizes (log2)
system.mem_ctrls.writePktSize::0                    0                       # Write request sizes (log2)
system.mem_ctrls.writePktSize::1                    0                       # Write request sizes (log2)
system.mem_ctrls.writePktSize::2                    0                       # Write request sizes (log2)
system.mem_ctrls.writePktSize::3                    0                       # Write request sizes (log2)
system.mem_ctrls.writePktSize::4                    0                       # Write request sizes (log2)
system.mem_ctrls.writePktSize::5                    0                       # Write request sizes (log2)
system.mem_ctrls.writePktSize::6               359548                       # Write request sizes (log2)
system.mem_ctrls.rdQLenPdf::0                  324840                       # What read queue length does an incoming req see
system.mem_ctrls.rdQLenPdf::1                  135456                       # What read queue length does an incoming req see
system.mem_ctrls.rdQLenPdf::2                   73050                       # What read queue length does an incoming req see
system.mem_ctrls.rdQLenPdf::3                   24690                       # What read queue length does an incoming req see
system.mem_ctrls.rdQLenPdf::4                    1308                       # What read queue length does an incoming req see
system.mem_ctrls.rdQLenPdf::5                    4533                       # What read queue length does an incoming req see
system.mem_ctrls.rdQLenPdf::6                    3930                       # What read queue length does an incoming req see
system.mem_ctrls.rdQLenPdf::7                    3997                       # What read queue length does an incoming req see
system.mem_ctrls.rdQLenPdf::8                    4183                       # What read queue length does an incoming req see
system.mem_ctrls.rdQLenPdf::9                    2625                       # What read queue length does an incoming req see
system.mem_ctrls.rdQLenPdf::10                   2194                       # What read queue length does an incoming req see
system.mem_ctrls.rdQLenPdf::11                   2073                       # What read queue length does an incoming req see
system.mem_ctrls.rdQLenPdf::12                   1946                       # What read queue length does an incoming req see
system.mem_ctrls.rdQLenPdf::13                   1881                       # What read queue length does an incoming req see
system.mem_ctrls.rdQLenPdf::14                   1633                       # What read queue length does an incoming req see
system.mem_ctrls.rdQLenPdf::15                   1613                       # What read queue length does an incoming req see
system.mem_ctrls.rdQLenPdf::16                   1606                       # What read queue length does an incoming req see
system.mem_ctrls.rdQLenPdf::17                   1617                       # What read queue length does an incoming req see
system.mem_ctrls.rdQLenPdf::18                   1776                       # What read queue length does an incoming req see
system.mem_ctrls.rdQLenPdf::19                   1296                       # What read queue length does an incoming req see
system.mem_ctrls.rdQLenPdf::20                      6                       # What read queue length does an incoming req see
system.mem_ctrls.rdQLenPdf::21                      0                       # What read queue length does an incoming req see
system.mem_ctrls.rdQLenPdf::22                      0                       # What read queue length does an incoming req see
system.mem_ctrls.rdQLenPdf::23                      0                       # What read queue length does an incoming req see
system.mem_ctrls.rdQLenPdf::24                      0                       # What read queue length does an incoming req see
system.mem_ctrls.rdQLenPdf::25                      0                       # What read queue length does an incoming req see
system.mem_ctrls.rdQLenPdf::26                      0                       # What read queue length does an incoming req see
system.mem_ctrls.rdQLenPdf::27                      0                       # What read queue length does an incoming req see
system.mem_ctrls.rdQLenPdf::28                      0                       # What read queue length does an incoming req see
system.mem_ctrls.rdQLenPdf::29                      0                       # What read queue length does an incoming req see
system.mem_ctrls.rdQLenPdf::30                      0                       # What read queue length does an incoming req see
system.mem_ctrls.rdQLenPdf::31                      0                       # What read queue length does an incoming req see
system.mem_ctrls.wrQLenPdf::0                       1                       # What write queue length does an incoming req see
system.mem_ctrls.wrQLenPdf::1                       1                       # What write queue length does an incoming req see
system.mem_ctrls.wrQLenPdf::2                       1                       # What write queue length does an incoming req see
system.mem_ctrls.wrQLenPdf::3                       1                       # What write queue length does an incoming req see
system.mem_ctrls.wrQLenPdf::4                       1                       # What write queue length does an incoming req see
system.mem_ctrls.wrQLenPdf::5                       1                       # What write queue length does an incoming req see
system.mem_ctrls.wrQLenPdf::6                       1                       # What write queue length does an incoming req see
system.mem_ctrls.wrQLenPdf::7                       1                       # What write queue length does an incoming req see
system.mem_ctrls.wrQLenPdf::8                       1                       # What write queue length does an incoming req see
system.mem_ctrls.wrQLenPdf::9                       1                       # What write queue length does an incoming req see
system.mem_ctrls.wrQLenPdf::10                      1                       # What write queue length does an incoming req see
system.mem_ctrls.wrQLenPdf::11                      1                       # What write queue length does an incoming req see
system.mem_ctrls.wrQLenPdf::12                      1                       # What write queue length does an incoming req see
system.mem_ctrls.wrQLenPdf::13                      1                       # What write queue length does an incoming req see
system.mem_ctrls.wrQLenPdf::14                      1                       # What write queue length does an incoming req see
system.mem_ctrls.wrQLenPdf::15                    695                       # What write queue length does an incoming req see
system.mem_ctrls.wrQLenPdf::16                   1079                       # What write queue length does an incoming req see
system.mem_ctrls.wrQLenPdf::17                   2609                       # What write queue length does an incoming req see
system.mem_ctrls.wrQLenPdf::18                   6472                       # What write queue length does an incoming req see
system.mem_ctrls.wrQLenPdf::19                  10615                       # What write queue length does an incoming req see
system.mem_ctrls.wrQLenPdf::20                  15584                       # What write queue length does an incoming req see
system.mem_ctrls.wrQLenPdf::21                  19415                       # What write queue length does an incoming req see
system.mem_ctrls.wrQLenPdf::22                  19621                       # What write queue length does an incoming req see
system.mem_ctrls.wrQLenPdf::23                  19757                       # What write queue length does an incoming req see
system.mem_ctrls.wrQLenPdf::24                  19843                       # What write queue length does an incoming req see
system.mem_ctrls.wrQLenPdf::25                  22245                       # What write queue length does an incoming req see
system.mem_ctrls.wrQLenPdf::26                  20980                       # What write queue length does an incoming req see
system.mem_ctrls.wrQLenPdf::27                  21407                       # What write queue length does an incoming req see
system.mem_ctrls.wrQLenPdf::28                  25546                       # What write queue length does an incoming req see
system.mem_ctrls.wrQLenPdf::29                  24149                       # What write queue length does an incoming req see
system.mem_ctrls.wrQLenPdf::30                  24804                       # What write queue length does an incoming req see
system.mem_ctrls.wrQLenPdf::31                  24880                       # What write queue length does an incoming req see
system.mem_ctrls.wrQLenPdf::32                  22045                       # What write queue length does an incoming req see
system.mem_ctrls.wrQLenPdf::33                  11674                       # What write queue length does an incoming req see
system.mem_ctrls.wrQLenPdf::34                   8744                       # What write queue length does an incoming req see
system.mem_ctrls.wrQLenPdf::35                   4972                       # What write queue length does an incoming req see
system.mem_ctrls.wrQLenPdf::36                   1199                       # What write queue length does an incoming req see
system.mem_ctrls.wrQLenPdf::37                   1252                       # What write queue length does an incoming req see
system.mem_ctrls.wrQLenPdf::38                   1173                       # What write queue length does an incoming req see
system.mem_ctrls.wrQLenPdf::39                   1108                       # What write queue length does an incoming req see
system.mem_ctrls.wrQLenPdf::40                   1203                       # What write queue length does an incoming req see
system.mem_ctrls.wrQLenPdf::41                   1300                       # What write queue length does an incoming req see
system.mem_ctrls.wrQLenPdf::42                   1494                       # What write queue length does an incoming req see
system.mem_ctrls.wrQLenPdf::43                   1574                       # What write queue length does an incoming req see
system.mem_ctrls.wrQLenPdf::44                   1796                       # What write queue length does an incoming req see
system.mem_ctrls.wrQLenPdf::45                   1882                       # What write queue length does an incoming req see
system.mem_ctrls.wrQLenPdf::46                   1943                       # What write queue length does an incoming req see
system.mem_ctrls.wrQLenPdf::47                   1818                       # What write queue length does an incoming req see
system.mem_ctrls.wrQLenPdf::48                   1987                       # What write queue length does an incoming req see
system.mem_ctrls.wrQLenPdf::49                   1936                       # What write queue length does an incoming req see
system.mem_ctrls.wrQLenPdf::50                   1882                       # What write queue length does an incoming req see
system.mem_ctrls.wrQLenPdf::51                   1906                       # What write queue length does an incoming req see
system.mem_ctrls.wrQLenPdf::52                   1794                       # What write queue length does an incoming req see
system.mem_ctrls.wrQLenPdf::53                   1541                       # What write queue length does an incoming req see
system.mem_ctrls.wrQLenPdf::54                   1275                       # What write queue length does an incoming req see
system.mem_ctrls.wrQLenPdf::55                    841                       # What write queue length does an incoming req see
system.mem_ctrls.wrQLenPdf::56                    598                       # What write queue length does an incoming req see
system.mem_ctrls.wrQLenPdf::57                    426                       # What write queue length does an incoming req see
system.mem_ctrls.wrQLenPdf::58                    288                       # What write queue length does an incoming req see
system.mem_ctrls.wrQLenPdf::59                     64                       # What write queue length does an incoming req see
system.mem_ctrls.wrQLenPdf::60                     39                       # What write queue length does an incoming req see
system.mem_ctrls.wrQLenPdf::61                     28                       # What write queue length does an incoming req see
system.mem_ctrls.wrQLenPdf::62                     18                       # What write queue length does an incoming req see
system.mem_ctrls.wrQLenPdf::63                     20                       # What write queue length does an incoming req see
system.mem_ctrls.bytesPerActivate::samples        88651                       # Bytes accessed per row activation
system.mem_ctrls.bytesPerActivate::mean    630.233703                       # Bytes accessed per row activation
system.mem_ctrls.bytesPerActivate::gmean   401.213913                       # Bytes accessed per row activation
system.mem_ctrls.bytesPerActivate::stdev   420.616304                       # Bytes accessed per row activation
system.mem_ctrls.bytesPerActivate::0-127        18612     20.99%     20.99% # Bytes accessed per row activation
system.mem_ctrls.bytesPerActivate::128-255         9654     10.89%     31.88% # Bytes accessed per row activation
system.mem_ctrls.bytesPerActivate::256-383         4838      5.46%     37.34% # Bytes accessed per row activation
system.mem_ctrls.bytesPerActivate::384-511         3270      3.69%     41.03% # Bytes accessed per row activation
system.mem_ctrls.bytesPerActivate::512-639         2712      3.06%     44.09% # Bytes accessed per row activation
system.mem_ctrls.bytesPerActivate::640-767         2198      2.48%     46.57% # Bytes accessed per row activation
system.mem_ctrls.bytesPerActivate::768-895         2152      2.43%     49.00% # Bytes accessed per row activation
system.mem_ctrls.bytesPerActivate::896-1023         5036      5.68%     54.68% # Bytes accessed per row activation
system.mem_ctrls.bytesPerActivate::1024-1151        40179     45.32%    100.00% # Bytes accessed per row activation
system.mem_ctrls.bytesPerActivate::total        88651                       # Bytes accessed per row activation
system.mem_ctrls.rdPerTurnAround::samples        21895                       # Reads before turning the bus around for writes
system.mem_ctrls.rdPerTurnAround::mean      27.185522                       # Reads before turning the bus around for writes
system.mem_ctrls.rdPerTurnAround::stdev    868.741253                       # Reads before turning the bus around for writes
system.mem_ctrls.rdPerTurnAround::0-4095        21892     99.99%     99.99% # Reads before turning the bus around for writes
system.mem_ctrls.rdPerTurnAround::28672-32767            1      0.00%     99.99% # Reads before turning the bus around for writes
system.mem_ctrls.rdPerTurnAround::32768-36863            1      0.00%    100.00% # Reads before turning the bus around for writes
system.mem_ctrls.rdPerTurnAround::118784-122879            1      0.00%    100.00% # Reads before turning the bus around for writes
system.mem_ctrls.rdPerTurnAround::total         21895                       # Reads before turning the bus around for writes
system.mem_ctrls.wrPerTurnAround::samples        21895                       # Writes before turning the bus around for reads
system.mem_ctrls.wrPerTurnAround::mean      16.420918                       # Writes before turning the bus around for reads
system.mem_ctrls.wrPerTurnAround::gmean     16.330030                       # Writes before turning the bus around for reads
system.mem_ctrls.wrPerTurnAround::stdev      2.319159                       # Writes before turning the bus around for reads
system.mem_ctrls.wrPerTurnAround::16-17         20575     93.97%     93.97% # Writes before turning the bus around for reads
system.mem_ctrls.wrPerTurnAround::18-19           819      3.74%     97.71% # Writes before turning the bus around for reads
system.mem_ctrls.wrPerTurnAround::20-21           147      0.67%     98.38% # Writes before turning the bus around for reads
system.mem_ctrls.wrPerTurnAround::22-23            45      0.21%     98.59% # Writes before turning the bus around for reads
system.mem_ctrls.wrPerTurnAround::24-25            92      0.42%     99.01% # Writes before turning the bus around for reads
system.mem_ctrls.wrPerTurnAround::26-27            44      0.20%     99.21% # Writes before turning the bus around for reads
system.mem_ctrls.wrPerTurnAround::28-29            50      0.23%     99.44% # Writes before turning the bus around for reads
system.mem_ctrls.wrPerTurnAround::30-31            10      0.05%     99.48% # Writes before turning the bus around for reads
system.mem_ctrls.wrPerTurnAround::32-33             5      0.02%     99.51% # Writes before turning the bus around for reads
system.mem_ctrls.wrPerTurnAround::34-35            13      0.06%     99.57% # Writes before turning the bus around for reads
system.mem_ctrls.wrPerTurnAround::36-37            12      0.05%     99.62% # Writes before turning the bus around for reads
system.mem_ctrls.wrPerTurnAround::38-39            13      0.06%     99.68% # Writes before turning the bus around for reads
system.mem_ctrls.wrPerTurnAround::40-41            13      0.06%     99.74% # Writes before turning the bus around for reads
system.mem_ctrls.wrPerTurnAround::42-43             8      0.04%     99.78% # Writes before turning the bus around for reads
system.mem_ctrls.wrPerTurnAround::44-45             5      0.02%     99.80% # Writes before turning the bus around for reads
system.mem_ctrls.wrPerTurnAround::46-47            16      0.07%     99.87% # Writes before turning the bus around for reads
system.mem_ctrls.wrPerTurnAround::48-49             8      0.04%     99.91% # Writes before turning the bus around for reads
system.mem_ctrls.wrPerTurnAround::50-51             3      0.01%     99.92% # Writes before turning the bus around for reads
system.mem_ctrls.wrPerTurnAround::52-53             5      0.02%     99.95% # Writes before turning the bus around for reads
system.mem_ctrls.wrPerTurnAround::54-55             2      0.01%     99.95% # Writes before turning the bus around for reads
system.mem_ctrls.wrPerTurnAround::56-57             8      0.04%     99.99% # Writes before turning the bus around for reads
system.mem_ctrls.wrPerTurnAround::58-59             1      0.00%    100.00% # Writes before turning the bus around for reads
system.mem_ctrls.wrPerTurnAround::72-73             1      0.00%    100.00% # Writes before turning the bus around for reads
system.mem_ctrls.wrPerTurnAround::total         21895                       # Writes before turning the bus around for reads
system.mem_ctrls.totQLat                  19259980000                       # Total ticks spent queuing
system.mem_ctrls.totMemAccLat             28518395000                       # Total ticks spent from burst creation until serviced by the DRAM
system.mem_ctrls.totBusLat                 2981265000                       # Total ticks spent in databus transfers
system.mem_ctrls.totBankLat                6277150000                       # Total ticks spent accessing banks
system.mem_ctrls.avgQLat                     32301.69                       # Average queueing delay per DRAM burst
system.mem_ctrls.avgBankLat                  10527.66                       # Average bank access latency per DRAM burst
system.mem_ctrls.avgBusLat                    5000.00                       # Average bus latency per DRAM burst
system.mem_ctrls.avgMemAccLat                47829.35                       # Average memory access latency per DRAM burst
system.mem_ctrls.avgRdBW                        20.59                       # Average DRAM read bandwidth in MiByte/s
system.mem_ctrls.avgWrBW                        12.41                       # Average achieved write bandwidth in MiByte/s
system.mem_ctrls.avgRdBWSys                     20.59                       # Average system read bandwidth in MiByte/s
system.mem_ctrls.avgWrBWSys                     12.41                       # Average system write bandwidth in MiByte/s
system.mem_ctrls.peakBW                      12800.00                       # Theoretical peak bandwidth in MiByte/s
system.mem_ctrls.busUtil                         0.26                       # Data bus utilization in percentage
system.mem_ctrls.busUtilRead                     0.16                       # Data bus utilization in percentage for reads
system.mem_ctrls.busUtilWrite                    0.10                       # Data bus utilization in percentage for writes
system.mem_ctrls.avgRdQLen                       1.71                       # Average read queue length when enqueuing
system.mem_ctrls.avgWrQLen                      25.27                       # Average write queue length when enqueuing
system.mem_ctrls.readRowHits                   530205                       # Number of row buffer hits during reads
system.mem_ctrls.writeRowHits                  315689                       # Number of row buffer hits during writes
system.mem_ctrls.readRowHitRate                 88.92                       # Row buffer hit rate for reads
system.mem_ctrls.writeRowHitRate                87.80                       # Row buffer hit rate for writes
system.mem_ctrls.avgGap                    1938888.72                       # Average gap between requests
system.mem_ctrls.pageHitRate                    88.50                       # Row buffer hit rate, read and write combined
system.mem_ctrls.prechargeAllPercent             0.39                       # Percentage of time for which DRAM has all the banks in precharge state
system.membus.throughput                     33042542                       # Throughput (bytes/s)
system.membus.trans_dist::ReadReq              297392                       # Transaction distribution
system.membus.trans_dist::ReadResp             297317                       # Transaction distribution
system.membus.trans_dist::WriteReq               8938                       # Transaction distribution
system.membus.trans_dist::WriteResp              8938                       # Transaction distribution
system.membus.trans_dist::Writeback            359548                       # Transaction distribution
system.membus.trans_dist::UpgradeReq              174                       # Transaction distribution
system.membus.trans_dist::SCUpgradeReq              1                       # Transaction distribution
system.membus.trans_dist::UpgradeResp             175                       # Transaction distribution
system.membus.trans_dist::ReadExReq            305946                       # Transaction distribution
system.membus.trans_dist::ReadExResp           305946                       # Transaction distribution
system.membus.trans_dist::BadAddressError           75                       # Transaction distribution
system.membus.pkt_count_system.iocache.mem_side::system.mem_ctrls.port       129053                       # Packet count per connected master and slave (bytes)
system.membus.pkt_count_system.iocache.mem_side::total       129053                       # Packet count per connected master and slave (bytes)
system.membus.pkt_count_system.l2.mem_side::system.bridge.slave        30874                       # Packet count per connected master and slave (bytes)
system.membus.pkt_count_system.l2.mem_side::system.mem_ctrls.port      1424031                       # Packet count per connected master and slave (bytes)
system.membus.pkt_count_system.l2.mem_side::system.membus.badaddr_responder.pio          150                       # Packet count per connected master and slave (bytes)
system.membus.pkt_count_system.l2.mem_side::total      1455055                       # Packet count per connected master and slave (bytes)
system.membus.pkt_count::total                1584108                       # Packet count per connected master and slave (bytes)
system.membus.tot_pkt_size_system.iocache.mem_side::system.mem_ctrls.port      5496704                       # Cumulative packet size per connected master and slave (bytes)
system.membus.tot_pkt_size_system.iocache.mem_side::total      5496704                       # Cumulative packet size per connected master and slave (bytes)
system.membus.tot_pkt_size_system.l2.mem_side::system.bridge.slave        41172                       # Cumulative packet size per connected master and slave (bytes)
system.membus.tot_pkt_size_system.l2.mem_side::system.mem_ctrls.port     55685376                       # Cumulative packet size per connected master and slave (bytes)
system.membus.tot_pkt_size_system.l2.mem_side::total     55726548                       # Cumulative packet size per connected master and slave (bytes)
system.membus.tot_pkt_size::total            61223252                       # Cumulative packet size per connected master and slave (bytes)
system.membus.data_through_bus               61223252                       # Total data (bytes)
system.membus.snoop_data_through_bus            21888                       # Total snoop data (bytes)
system.membus.reqLayer0.occupancy            27863998                       # Layer occupancy (ticks)
system.membus.reqLayer0.utilization               0.0                       # Layer utilization (%)
system.membus.reqLayer1.occupancy          3982902750                       # Layer occupancy (ticks)
system.membus.reqLayer1.utilization               0.2                       # Layer utilization (%)
system.membus.reqLayer2.occupancy               97000                       # Layer occupancy (ticks)
system.membus.reqLayer2.utilization               0.0                       # Layer utilization (%)
system.membus.respLayer1.occupancy          389702000                       # Layer occupancy (ticks)
system.membus.respLayer1.utilization              0.0                       # Layer utilization (%)
system.membus.respLayer2.occupancy         5153124319                       # Layer occupancy (ticks)
system.membus.respLayer2.utilization              0.3                       # Layer utilization (%)
system.iocache.tags.replacements                43125                       # number of replacements
system.iocache.tags.tagsinuse                0.342940                       # Cycle average of tags in use
system.iocache.tags.total_refs                      1                       # Total number of references to valid blocks.
system.iocache.tags.sampled_refs                43125                       # Sample count of references to valid blocks.
system.iocache.tags.avg_refs                 0.000023                       # Average number of references to valid blocks.
system.iocache.tags.warmup_cycle         1711315588000                       # Cycle when the warmup percentage was hit.
system.iocache.tags.occ_blocks::tsunami.ide     0.342940                       # Average occupied blocks per requestor
system.iocache.tags.occ_percent::tsunami.ide     0.021434                       # Average percentage of cache occupancy
system.iocache.tags.occ_percent::total       0.021434                       # Average percentage of cache occupancy
system.iocache.tags.occ_task_id_blocks::1023           16                       # Occupied blocks per task id
system.iocache.tags.age_task_id_blocks_1023::3           16                       # Occupied blocks per task id
system.iocache.tags.occ_task_id_percent::1023            1                       # Percentage of cache occupancy per task id
system.iocache.tags.tag_accesses               388493                       # Number of tag accesses
system.iocache.tags.data_accesses              388493                       # Number of data accesses
system.iocache.ReadReq_misses::tsunami.ide          190                       # number of ReadReq misses
system.iocache.ReadReq_misses::total              190                       # number of ReadReq misses
system.iocache.WriteReq_misses::tsunami.ide        42976                       # number of WriteReq misses
system.iocache.WriteReq_misses::total           42976                       # number of WriteReq misses
system.iocache.demand_misses::tsunami.ide        43166                       # number of demand (read+write) misses
system.iocache.demand_misses::total             43166                       # number of demand (read+write) misses
system.iocache.overall_misses::tsunami.ide        43166                       # number of overall misses
system.iocache.overall_misses::total            43166                       # number of overall misses
system.iocache.ReadReq_miss_latency::tsunami.ide     31148871                       # number of ReadReq miss cycles
system.iocache.ReadReq_miss_latency::total     31148871                       # number of ReadReq miss cycles
system.iocache.WriteReq_miss_latency::tsunami.ide  13655755421                       # number of WriteReq miss cycles
system.iocache.WriteReq_miss_latency::total  13655755421                       # number of WriteReq miss cycles
system.iocache.demand_miss_latency::tsunami.ide  13686904292                       # number of demand (read+write) miss cycles
system.iocache.demand_miss_latency::total  13686904292                       # number of demand (read+write) miss cycles
system.iocache.overall_miss_latency::tsunami.ide  13686904292                       # number of overall miss cycles
system.iocache.overall_miss_latency::total  13686904292                       # number of overall miss cycles
system.iocache.ReadReq_accesses::tsunami.ide          190                       # number of ReadReq accesses(hits+misses)
system.iocache.ReadReq_accesses::total            190                       # number of ReadReq accesses(hits+misses)
system.iocache.WriteReq_accesses::tsunami.ide        42976                       # number of WriteReq accesses(hits+misses)
system.iocache.WriteReq_accesses::total         42976                       # number of WriteReq accesses(hits+misses)
system.iocache.demand_accesses::tsunami.ide        43166                       # number of demand (read+write) accesses
system.iocache.demand_accesses::total           43166                       # number of demand (read+write) accesses
system.iocache.overall_accesses::tsunami.ide        43166                       # number of overall (read+write) accesses
system.iocache.overall_accesses::total          43166                       # number of overall (read+write) accesses
system.iocache.ReadReq_miss_rate::tsunami.ide            1                       # miss rate for ReadReq accesses
system.iocache.ReadReq_miss_rate::total             1                       # miss rate for ReadReq accesses
system.iocache.WriteReq_miss_rate::tsunami.ide            1                       # miss rate for WriteReq accesses
system.iocache.WriteReq_miss_rate::total            1                       # miss rate for WriteReq accesses
system.iocache.demand_miss_rate::tsunami.ide            1                       # miss rate for demand accesses
system.iocache.demand_miss_rate::total              1                       # miss rate for demand accesses
system.iocache.overall_miss_rate::tsunami.ide            1                       # miss rate for overall accesses
system.iocache.overall_miss_rate::total             1                       # miss rate for overall accesses
system.iocache.ReadReq_avg_miss_latency::tsunami.ide 163941.426316                       # average ReadReq miss latency
system.iocache.ReadReq_avg_miss_latency::total 163941.426316                       # average ReadReq miss latency
system.iocache.WriteReq_avg_miss_latency::tsunami.ide 317753.058009                       # average WriteReq miss latency
system.iocache.WriteReq_avg_miss_latency::total 317753.058009                       # average WriteReq miss latency
system.iocache.demand_avg_miss_latency::tsunami.ide 317076.038827                       # average overall miss latency
system.iocache.demand_avg_miss_latency::total 317076.038827                       # average overall miss latency
system.iocache.overall_avg_miss_latency::tsunami.ide 317076.038827                       # average overall miss latency
system.iocache.overall_avg_miss_latency::total 317076.038827                       # average overall miss latency
system.iocache.blocked_cycles::no_mshrs        406043                       # number of cycles access was blocked
system.iocache.blocked_cycles::no_targets            0                       # number of cycles access was blocked
system.iocache.blocked::no_mshrs                29702                       # number of cycles access was blocked
system.iocache.blocked::no_targets                  0                       # number of cycles access was blocked
system.iocache.avg_blocked_cycles::no_mshrs    13.670561                       # average number of cycles each access was blocked
system.iocache.avg_blocked_cycles::no_targets          nan                       # average number of cycles each access was blocked
system.iocache.fast_writes                          0                       # number of fast writes performed
system.iocache.cache_copies                         0                       # number of cache copies performed
system.iocache.writebacks::writebacks           42935                       # number of writebacks
system.iocache.writebacks::total                42935                       # number of writebacks
system.iocache.ReadReq_mshr_misses::tsunami.ide          190                       # number of ReadReq MSHR misses
system.iocache.ReadReq_mshr_misses::total          190                       # number of ReadReq MSHR misses
system.iocache.WriteReq_mshr_misses::tsunami.ide        42976                       # number of WriteReq MSHR misses
system.iocache.WriteReq_mshr_misses::total        42976                       # number of WriteReq MSHR misses
system.iocache.demand_mshr_misses::tsunami.ide        43166                       # number of demand (read+write) MSHR misses
system.iocache.demand_mshr_misses::total        43166                       # number of demand (read+write) MSHR misses
system.iocache.overall_mshr_misses::tsunami.ide        43166                       # number of overall MSHR misses
system.iocache.overall_mshr_misses::total        43166                       # number of overall MSHR misses
system.iocache.ReadReq_mshr_miss_latency::tsunami.ide     21266871                       # number of ReadReq MSHR miss cycles
system.iocache.ReadReq_mshr_miss_latency::total     21266871                       # number of ReadReq MSHR miss cycles
system.iocache.WriteReq_mshr_miss_latency::tsunami.ide  11418573421                       # number of WriteReq MSHR miss cycles
system.iocache.WriteReq_mshr_miss_latency::total  11418573421                       # number of WriteReq MSHR miss cycles
system.iocache.demand_mshr_miss_latency::tsunami.ide  11439840292                       # number of demand (read+write) MSHR miss cycles
system.iocache.demand_mshr_miss_latency::total  11439840292                       # number of demand (read+write) MSHR miss cycles
system.iocache.overall_mshr_miss_latency::tsunami.ide  11439840292                       # number of overall MSHR miss cycles
system.iocache.overall_mshr_miss_latency::total  11439840292                       # number of overall MSHR miss cycles
system.iocache.ReadReq_mshr_miss_rate::tsunami.ide            1                       # mshr miss rate for ReadReq accesses
system.iocache.ReadReq_mshr_miss_rate::total            1                       # mshr miss rate for ReadReq accesses
system.iocache.WriteReq_mshr_miss_rate::tsunami.ide            1                       # mshr miss rate for WriteReq accesses
system.iocache.WriteReq_mshr_miss_rate::total            1                       # mshr miss rate for WriteReq accesses
system.iocache.demand_mshr_miss_rate::tsunami.ide            1                       # mshr miss rate for demand accesses
system.iocache.demand_mshr_miss_rate::total            1                       # mshr miss rate for demand accesses
system.iocache.overall_mshr_miss_rate::tsunami.ide            1                       # mshr miss rate for overall accesses
system.iocache.overall_mshr_miss_rate::total            1                       # mshr miss rate for overall accesses
system.iocache.ReadReq_avg_mshr_miss_latency::tsunami.ide 111930.900000                       # average ReadReq mshr miss latency
system.iocache.ReadReq_avg_mshr_miss_latency::total 111930.900000                       # average ReadReq mshr miss latency
system.iocache.WriteReq_avg_mshr_miss_latency::tsunami.ide 265696.514822                       # average WriteReq mshr miss latency
system.iocache.WriteReq_avg_mshr_miss_latency::total 265696.514822                       # average WriteReq mshr miss latency
system.iocache.demand_avg_mshr_miss_latency::tsunami.ide 265019.698188                       # average overall mshr miss latency
system.iocache.demand_avg_mshr_miss_latency::total 265019.698188                       # average overall mshr miss latency
system.iocache.overall_avg_mshr_miss_latency::tsunami.ide 265019.698188                       # average overall mshr miss latency
system.iocache.overall_avg_mshr_miss_latency::total 265019.698188                       # average overall mshr miss latency
system.iocache.no_allocate_misses                   0                       # Number of misses that were no-allocate
system.disk0.dma_read_full_pages                    0                       # Number of full page size DMA reads (not PRD).
system.disk0.dma_read_bytes                      4096                       # Number of bytes transfered via DMA reads (not PRD).
system.disk0.dma_read_txs                           1                       # Number of DMA read transactions (not PRD).
system.disk0.dma_write_full_pages                 316                       # Number of full page size DMA writes.
system.disk0.dma_write_bytes                  2742272                       # Number of bytes transfered via DMA writes.
system.disk0.dma_write_txs                        355                       # Number of DMA write transactions.
system.disk2.dma_read_full_pages                    0                       # Number of full page size DMA reads (not PRD).
system.disk2.dma_read_bytes                         0                       # Number of bytes transfered via DMA reads (not PRD).
system.disk2.dma_read_txs                           0                       # Number of DMA read transactions (not PRD).
system.disk2.dma_write_full_pages                   1                       # Number of full page size DMA writes.
system.disk2.dma_write_bytes                     8192                       # Number of bytes transfered via DMA writes.
system.disk2.dma_write_txs                          1                       # Number of DMA write transactions.
system.cpu.branchPred.lookups                16161228                       # Number of BP lookups
system.cpu.branchPred.condPredicted          13852925                       # Number of conditional branches predicted
system.cpu.branchPred.condIncorrect            392513                       # Number of conditional branches incorrect
system.cpu.branchPred.BTBLookups             10914910                       # Number of BTB lookups
system.cpu.branchPred.BTBHits                 7483755                       # Number of BTB hits
system.cpu.branchPred.BTBCorrect                    0                       # Number of correct BTB predictions (this stat may not work properly.
system.cpu.branchPred.BTBHitPct             68.564514                       # BTB Hit Percentage
system.cpu.branchPred.usedRAS                  917137                       # Number of times the RAS was used to get a target.
system.cpu.branchPred.RASInCorrect              36138                       # Number of incorrect RAS predictions.
system.cpu_voltage_domain.voltage                   1                       # Voltage in Volts
system.cpu_clk_domain.clock                       500                       # Clock period in ticks
system.cpu.dtb.fetch_hits                           0                       # ITB hits
system.cpu.dtb.fetch_misses                         0                       # ITB misses
system.cpu.dtb.fetch_acv                            0                       # ITB acv
system.cpu.dtb.fetch_accesses                       0                       # ITB accesses
system.cpu.dtb.read_hits                     11651852                       # DTB read hits
system.cpu.dtb.read_misses                      45103                       # DTB read misses
system.cpu.dtb.read_acv                           505                       # DTB read access violations
system.cpu.dtb.read_accesses                   998354                       # DTB read accesses
system.cpu.dtb.write_hits                     7873889                       # DTB write hits
system.cpu.dtb.write_misses                     12301                       # DTB write misses
system.cpu.dtb.write_acv                          464                       # DTB write access violations
system.cpu.dtb.write_accesses                  367679                       # DTB write accesses
system.cpu.dtb.data_hits                     19525741                       # DTB hits
system.cpu.dtb.data_misses                      57404                       # DTB misses
system.cpu.dtb.data_acv                           969                       # DTB access violations
system.cpu.dtb.data_accesses                  1366033                       # DTB accesses
system.cpu.itb.fetch_hits                     1330651                       # ITB hits
system.cpu.itb.fetch_misses                     32946                       # ITB misses
system.cpu.itb.fetch_acv                         1143                       # ITB acv
system.cpu.itb.fetch_accesses                 1363597                       # ITB accesses
system.cpu.itb.read_hits                            0                       # DTB read hits
system.cpu.itb.read_misses                          0                       # DTB read misses
system.cpu.itb.read_acv                             0                       # DTB read access violations
system.cpu.itb.read_accesses                        0                       # DTB read accesses
system.cpu.itb.write_hits                           0                       # DTB write hits
system.cpu.itb.write_misses                         0                       # DTB write misses
system.cpu.itb.write_acv                            0                       # DTB write access violations
system.cpu.itb.write_accesses                       0                       # DTB write accesses
system.cpu.itb.data_hits                            0                       # DTB hits
system.cpu.itb.data_misses                          0                       # DTB misses
system.cpu.itb.data_acv                             0                       # DTB access violations
system.cpu.itb.data_accesses                        0                       # DTB accesses
system.cpu.numCycles                        122088040                       # number of cpu cycles simulated
system.cpu.numWorkItemsStarted                      0                       # number of work items this cpu started
system.cpu.numWorkItemsCompleted                    0                       # number of work items this cpu completed
system.cpu.fetch.icacheStallCycles           26628615                       # Number of cycles fetch is stalled on an Icache miss
system.cpu.fetch.Insts                       85451166                       # Number of instructions fetch has processed
system.cpu.fetch.Branches                    16161228                       # Number of branches that fetch encountered
system.cpu.fetch.predictedBranches            8400892                       # Number of branches that fetch has predicted taken
system.cpu.fetch.Cycles                      16076463                       # Number of cycles fetch has run and was not squashing or blocked
system.cpu.fetch.SquashCycles                 2564049                       # Number of cycles fetch has spent squashing
system.cpu.fetch.BlockedCycles               49117809                       # Number of cycles fetch has spent blocked
system.cpu.fetch.MiscStallCycles                32615                       # Number of cycles fetch has spent waiting on interrupts, or bad addresses, or out of MSHRs
system.cpu.fetch.PendingDrainCycles                 4                       # Number of cycles fetch has spent waiting on pipes to drain
system.cpu.fetch.PendingTrapStallCycles        262339                       # Number of stall cycles due to pending traps
system.cpu.fetch.PendingQuiesceStallCycles       343740                       # Number of stall cycles due to pending quiesce instructions
system.cpu.fetch.IcacheWaitRetryStallCycles          264                       # Number of stall cycles due to full MSHR
system.cpu.fetch.CacheLines                  10149401                       # Number of cache lines fetched
system.cpu.fetch.IcacheSquashes                360244                       # Number of outstanding Icache misses that were squashed
system.cpu.fetch.rateDist::samples           94029330                       # Number of instructions fetched each cycle (Total)
system.cpu.fetch.rateDist::mean              0.908771                       # Number of instructions fetched each cycle (Total)
system.cpu.fetch.rateDist::stdev             2.241973                       # Number of instructions fetched each cycle (Total)
system.cpu.fetch.rateDist::underflows               0      0.00%      0.00% # Number of instructions fetched each cycle (Total)
system.cpu.fetch.rateDist::0                 77952867     82.90%     82.90% # Number of instructions fetched each cycle (Total)
system.cpu.fetch.rateDist::1                   922441      0.98%     83.88% # Number of instructions fetched each cycle (Total)
system.cpu.fetch.rateDist::2                  1954114      2.08%     85.96% # Number of instructions fetched each cycle (Total)
system.cpu.fetch.rateDist::3                   813918      0.87%     86.83% # Number of instructions fetched each cycle (Total)
system.cpu.fetch.rateDist::4                  4176467      4.44%     91.27% # Number of instructions fetched each cycle (Total)
system.cpu.fetch.rateDist::5                   616205      0.66%     91.92% # Number of instructions fetched each cycle (Total)
system.cpu.fetch.rateDist::6                   671863      0.71%     92.64% # Number of instructions fetched each cycle (Total)
system.cpu.fetch.rateDist::7                  1010968      1.08%     93.71% # Number of instructions fetched each cycle (Total)
system.cpu.fetch.rateDist::8                  5910487      6.29%    100.00% # Number of instructions fetched each cycle (Total)
system.cpu.fetch.rateDist::overflows                0      0.00%    100.00% # Number of instructions fetched each cycle (Total)
system.cpu.fetch.rateDist::min_value                0                       # Number of instructions fetched each cycle (Total)
system.cpu.fetch.rateDist::max_value                8                       # Number of instructions fetched each cycle (Total)
system.cpu.fetch.rateDist::total             94029330                       # Number of instructions fetched each cycle (Total)
system.cpu.fetch.branchRate                  0.132374                       # Number of branch fetches per cycle
system.cpu.fetch.rate                        0.699914                       # Number of inst fetches per cycle
system.cpu.decode.IdleCycles                 28503465                       # Number of cycles decode is idle
system.cpu.decode.BlockedCycles              48288145                       # Number of cycles decode is blocked
system.cpu.decode.RunCycles                  14190110                       # Number of cycles decode is running
system.cpu.decode.UnblockCycles               1522184                       # Number of cycles decode is unblocking
system.cpu.decode.SquashCycles                1525425                       # Number of cycles decode is squashing
system.cpu.decode.BranchResolved               621231                       # Number of times decode resolved a branch
system.cpu.decode.BranchMispred                 42475                       # Number of times decode detected a branch misprediction
system.cpu.decode.DecodedInsts               83077708                       # Number of instructions handled by decode
system.cpu.decode.SquashedInsts                130604                       # Number of squashed instructions handled by decode
system.cpu.rename.SquashCycles                1525425                       # Number of cycles rename is squashing
system.cpu.rename.IdleCycles                 30049868                       # Number of cycles rename is idle
system.cpu.rename.BlockCycles                12498644                       # Number of cycles rename is blocking
system.cpu.rename.serializeStallCycles       30679965                       # count of cycles rename stalled for serializing inst
system.cpu.rename.RunCycles                  13738542                       # Number of cycles rename is running
system.cpu.rename.UnblockCycles               5536884                       # Number of cycles rename is unblocking
system.cpu.rename.RenamedInsts               78399482                       # Number of instructions processed by rename
system.cpu.rename.ROBFullEvents                 20604                       # Number of times rename has blocked due to ROB full
system.cpu.rename.IQFullEvents                 444534                       # Number of times rename has blocked due to IQ full
system.cpu.rename.LSQFullEvents               2882279                       # Number of times rename has blocked due to LSQ full
system.cpu.rename.RenamedOperands            52123097                       # Number of destination operands rename has renamed
system.cpu.rename.RenameLookups              95622830                       # Number of register rename lookups that rename has made
system.cpu.rename.int_rename_lookups         95441809                       # Number of integer rename lookups
system.cpu.rename.fp_rename_lookups            168273                       # Number of floating rename lookups
system.cpu.rename.CommittedMaps              44148620                       # Number of HB maps that are committed
system.cpu.rename.UndoneMaps                  7974469                       # Number of HB maps that are undone due to squashing
system.cpu.rename.serializingInsts            1801824                       # count of serializing insts renamed
system.cpu.rename.tempSerializingInsts         375362                       # count of temporary serializing insts renamed
system.cpu.rename.skidInsts                  14873537                       # count of insts added to the skid buffer
system.cpu.memDep0.insertedLoads             12171236                       # Number of loads inserted to the mem dependence unit.
system.cpu.memDep0.insertedStores             8415987                       # Number of stores inserted to the mem dependence unit.
system.cpu.memDep0.conflictingLoads           1452386                       # Number of conflicting loads.
system.cpu.memDep0.conflictingStores           896050                       # Number of conflicting stores.
system.cpu.iq.iqInstsAdded                   68513835                       # Number of instructions added to the IQ (excludes non-spec)
system.cpu.iq.iqNonSpecInstsAdded             2146227                       # Number of non-speculative instructions added to the IQ
system.cpu.iq.iqInstsIssued                  66640359                       # Number of instructions issued
system.cpu.iq.iqSquashedInstsIssued            112922                       # Number of squashed instructions issued
system.cpu.iq.iqSquashedInstsExamined         8469806                       # Number of squashed instructions iterated over during squash; mainly for profiling
system.cpu.iq.iqSquashedOperandsExamined      5176652                       # Number of squashed operands that are examined and possibly removed from graph
system.cpu.iq.iqSquashedNonSpecRemoved        1318904                       # Number of squashed non-spec instructions that were removed
system.cpu.iq.issued_per_cycle::samples      94029330                       # Number of insts issued each cycle
system.cpu.iq.issued_per_cycle::mean         0.708719                       # Number of insts issued each cycle
system.cpu.iq.issued_per_cycle::stdev        1.353041                       # Number of insts issued each cycle
system.cpu.iq.issued_per_cycle::underflows            0      0.00%      0.00% # Number of insts issued each cycle
system.cpu.iq.issued_per_cycle::0            65025363     69.15%     69.15% # Number of insts issued each cycle
system.cpu.iq.issued_per_cycle::1            12286418     13.07%     82.22% # Number of insts issued each cycle
system.cpu.iq.issued_per_cycle::2             6478325      6.89%     89.11% # Number of insts issued each cycle
system.cpu.iq.issued_per_cycle::3             4289744      4.56%     93.67% # Number of insts issued each cycle
system.cpu.iq.issued_per_cycle::4             3035306      3.23%     96.90% # Number of insts issued each cycle
system.cpu.iq.issued_per_cycle::5             1608539      1.71%     98.61% # Number of insts issued each cycle
system.cpu.iq.issued_per_cycle::6              869117      0.92%     99.54% # Number of insts issued each cycle
system.cpu.iq.issued_per_cycle::7              362706      0.39%     99.92% # Number of insts issued each cycle
system.cpu.iq.issued_per_cycle::8               73812      0.08%    100.00% # Number of insts issued each cycle
system.cpu.iq.issued_per_cycle::overflows            0      0.00%    100.00% # Number of insts issued each cycle
system.cpu.iq.issued_per_cycle::min_value            0                       # Number of insts issued each cycle
system.cpu.iq.issued_per_cycle::max_value            8                       # Number of insts issued each cycle
system.cpu.iq.issued_per_cycle::total        94029330                       # Number of insts issued each cycle
system.cpu.iq.fu_full::No_OpClass                   0      0.00%      0.00% # attempts to use FU when none available
system.cpu.iq.fu_full::IntAlu                   78004     10.40%     10.40% # attempts to use FU when none available
system.cpu.iq.fu_full::IntMult                      0      0.00%     10.40% # attempts to use FU when none available
system.cpu.iq.fu_full::IntDiv                       0      0.00%     10.40% # attempts to use FU when none available
system.cpu.iq.fu_full::FloatAdd                     0      0.00%     10.40% # attempts to use FU when none available
system.cpu.iq.fu_full::FloatCmp                     0      0.00%     10.40% # attempts to use FU when none available
system.cpu.iq.fu_full::FloatCvt                     0      0.00%     10.40% # attempts to use FU when none available
system.cpu.iq.fu_full::FloatMult                    0      0.00%     10.40% # attempts to use FU when none available
system.cpu.iq.fu_full::FloatDiv                     0      0.00%     10.40% # attempts to use FU when none available
system.cpu.iq.fu_full::FloatSqrt                    0      0.00%     10.40% # attempts to use FU when none available
system.cpu.iq.fu_full::SimdAdd                      0      0.00%     10.40% # attempts to use FU when none available
system.cpu.iq.fu_full::SimdAddAcc                   0      0.00%     10.40% # attempts to use FU when none available
system.cpu.iq.fu_full::SimdAlu                      0      0.00%     10.40% # attempts to use FU when none available
system.cpu.iq.fu_full::SimdCmp                      0      0.00%     10.40% # attempts to use FU when none available
system.cpu.iq.fu_full::SimdCvt                      0      0.00%     10.40% # attempts to use FU when none available
system.cpu.iq.fu_full::SimdMisc                     0      0.00%     10.40% # attempts to use FU when none available
system.cpu.iq.fu_full::SimdMult                     0      0.00%     10.40% # attempts to use FU when none available
system.cpu.iq.fu_full::SimdMultAcc                  0      0.00%     10.40% # attempts to use FU when none available
system.cpu.iq.fu_full::SimdShift                    0      0.00%     10.40% # attempts to use FU when none available
system.cpu.iq.fu_full::SimdShiftAcc                 0      0.00%     10.40% # attempts to use FU when none available
system.cpu.iq.fu_full::SimdSqrt                     0      0.00%     10.40% # attempts to use FU when none available
system.cpu.iq.fu_full::SimdFloatAdd                 0      0.00%     10.40% # attempts to use FU when none available
system.cpu.iq.fu_full::SimdFloatAlu                 0      0.00%     10.40% # attempts to use FU when none available
system.cpu.iq.fu_full::SimdFloatCmp                 0      0.00%     10.40% # attempts to use FU when none available
system.cpu.iq.fu_full::SimdFloatCvt                 0      0.00%     10.40% # attempts to use FU when none available
system.cpu.iq.fu_full::SimdFloatDiv                 0      0.00%     10.40% # attempts to use FU when none available
system.cpu.iq.fu_full::SimdFloatMisc                0      0.00%     10.40% # attempts to use FU when none available
system.cpu.iq.fu_full::SimdFloatMult                0      0.00%     10.40% # attempts to use FU when none available
system.cpu.iq.fu_full::SimdFloatMultAcc             0      0.00%     10.40% # attempts to use FU when none available
system.cpu.iq.fu_full::SimdFloatSqrt                0      0.00%     10.40% # attempts to use FU when none available
system.cpu.iq.fu_full::MemRead                 372459     49.68%     60.08% # attempts to use FU when none available
system.cpu.iq.fu_full::MemWrite                299269     39.92%    100.00% # attempts to use FU when none available
system.cpu.iq.fu_full::IprAccess                    0      0.00%    100.00% # attempts to use FU when none available
system.cpu.iq.fu_full::InstPrefetch                 0      0.00%    100.00% # attempts to use FU when none available
system.cpu.iq.FU_type_0::No_OpClass              7734      0.01%      0.01% # Type of FU issued
system.cpu.iq.FU_type_0::IntAlu              45506706     68.29%     68.30% # Type of FU issued
system.cpu.iq.FU_type_0::IntMult                62218      0.09%     68.39% # Type of FU issued
system.cpu.iq.FU_type_0::IntDiv                     0      0.00%     68.39% # Type of FU issued
system.cpu.iq.FU_type_0::FloatAdd               26653      0.04%     68.43% # Type of FU issued
system.cpu.iq.FU_type_0::FloatCmp                   0      0.00%     68.43% # Type of FU issued
system.cpu.iq.FU_type_0::FloatCvt                   0      0.00%     68.43% # Type of FU issued
system.cpu.iq.FU_type_0::FloatMult                  0      0.00%     68.43% # Type of FU issued
system.cpu.iq.FU_type_0::FloatDiv                3863      0.01%     68.44% # Type of FU issued
system.cpu.iq.FU_type_0::FloatSqrt                  0      0.00%     68.44% # Type of FU issued
system.cpu.iq.FU_type_0::SimdAdd                    0      0.00%     68.44% # Type of FU issued
system.cpu.iq.FU_type_0::SimdAddAcc                 0      0.00%     68.44% # Type of FU issued
system.cpu.iq.FU_type_0::SimdAlu                    0      0.00%     68.44% # Type of FU issued
system.cpu.iq.FU_type_0::SimdCmp                    0      0.00%     68.44% # Type of FU issued
system.cpu.iq.FU_type_0::SimdCvt                    0      0.00%     68.44% # Type of FU issued
system.cpu.iq.FU_type_0::SimdMisc                   0      0.00%     68.44% # Type of FU issued
system.cpu.iq.FU_type_0::SimdMult                   0      0.00%     68.44% # Type of FU issued
system.cpu.iq.FU_type_0::SimdMultAcc                0      0.00%     68.44% # Type of FU issued
system.cpu.iq.FU_type_0::SimdShift                  0      0.00%     68.44% # Type of FU issued
system.cpu.iq.FU_type_0::SimdShiftAcc               0      0.00%     68.44% # Type of FU issued
system.cpu.iq.FU_type_0::SimdSqrt                   0      0.00%     68.44% # Type of FU issued
system.cpu.iq.FU_type_0::SimdFloatAdd               0      0.00%     68.44% # Type of FU issued
system.cpu.iq.FU_type_0::SimdFloatAlu               0      0.00%     68.44% # Type of FU issued
system.cpu.iq.FU_type_0::SimdFloatCmp               0      0.00%     68.44% # Type of FU issued
system.cpu.iq.FU_type_0::SimdFloatCvt               0      0.00%     68.44% # Type of FU issued
system.cpu.iq.FU_type_0::SimdFloatDiv               0      0.00%     68.44% # Type of FU issued
system.cpu.iq.FU_type_0::SimdFloatMisc              0      0.00%     68.44% # Type of FU issued
system.cpu.iq.FU_type_0::SimdFloatMult              0      0.00%     68.44% # Type of FU issued
system.cpu.iq.FU_type_0::SimdFloatMultAcc            0      0.00%     68.44% # Type of FU issued
system.cpu.iq.FU_type_0::SimdFloatSqrt              0      0.00%     68.44% # Type of FU issued
system.cpu.iq.FU_type_0::MemRead             12135306     18.21%     86.65% # Type of FU issued
system.cpu.iq.FU_type_0::MemWrite             7954966     11.94%     98.59% # Type of FU issued
system.cpu.iq.FU_type_0::IprAccess             942913      1.41%    100.00% # Type of FU issued
system.cpu.iq.FU_type_0::InstPrefetch               0      0.00%    100.00% # Type of FU issued
system.cpu.iq.FU_type_0::total               66640359                       # Type of FU issued
system.cpu.iq.rate                           0.545839                       # Inst issue rate
system.cpu.iq.fu_busy_cnt                      749732                       # FU busy when requested
system.cpu.iq.fu_busy_rate                   0.011250                       # FU busy rate (busy events/executed inst)
system.cpu.iq.int_inst_queue_reads          227394400                       # Number of integer instruction queue reads
system.cpu.iq.int_inst_queue_writes          78758601                       # Number of integer instruction queue writes
system.cpu.iq.int_inst_queue_wakeup_accesses     64671625                       # Number of integer instruction queue wakeup accesses
system.cpu.iq.fp_inst_queue_reads              778301                       # Number of floating instruction queue reads
system.cpu.iq.fp_inst_queue_writes             385166                       # Number of floating instruction queue writes
system.cpu.iq.fp_inst_queue_wakeup_accesses       365551                       # Number of floating instruction queue wakeup accesses
system.cpu.iq.int_alu_accesses               66977475                       # Number of integer alu accesses
system.cpu.iq.fp_alu_accesses                  404882                       # Number of floating point alu accesses
system.cpu.iew.lsq.thread0.forwLoads           662724                       # Number of loads that had data forwarded from stores
system.cpu.iew.lsq.thread0.invAddrLoads             0                       # Number of loads ignored due to an invalid address
system.cpu.iew.lsq.thread0.squashedLoads      1677973                       # Number of loads squashed
system.cpu.iew.lsq.thread0.ignoredResponses         2955                       # Number of memory responses ignored because the instruction is squashed
system.cpu.iew.lsq.thread0.memOrderViolation        14222                       # Number of memory ordering violations
system.cpu.iew.lsq.thread0.squashedStores       758788                       # Number of stores squashed
system.cpu.iew.lsq.thread0.invAddrSwpfs             0                       # Number of software prefetches ignored due to an invalid address
system.cpu.iew.lsq.thread0.blockedLoads             0                       # Number of blocked loads due to partial load-store forwarding
system.cpu.iew.lsq.thread0.rescheduledLoads        17419                       # Number of loads that were rescheduled
system.cpu.iew.lsq.thread0.cacheBlocked        567707                       # Number of times an access to memory failed due to the cache being blocked
system.cpu.iew.iewIdleCycles                        0                       # Number of cycles IEW is idle
system.cpu.iew.iewSquashCycles                1525425                       # Number of cycles IEW is squashing
system.cpu.iew.iewBlockCycles                 7781977                       # Number of cycles IEW is blocking
system.cpu.iew.iewUnblockCycles                439257                       # Number of cycles IEW is unblocking
system.cpu.iew.iewDispatchedInsts            74830395                       # Number of instructions dispatched to IQ
system.cpu.iew.iewDispSquashedInsts           1959140                       # Number of squashed instructions skipped by dispatch
system.cpu.iew.iewDispLoadInsts              12171236                       # Number of dispatched load instructions
system.cpu.iew.iewDispStoreInsts              8415987                       # Number of dispatched store instructions
system.cpu.iew.iewDispNonSpecInsts            1861306                       # Number of dispatched non-speculative instructions
system.cpu.iew.iewIQFullEvents                 252283                       # Number of times the IQ has become full, causing a stall
system.cpu.iew.iewLSQFullEvents                 24293                       # Number of times the LSQ has become full, causing a stall
system.cpu.iew.memOrderViolationEvents          14222                       # Number of memory order violations
system.cpu.iew.predictedTakenIncorrect         198704                       # Number of branches that were predicted taken incorrectly
system.cpu.iew.predictedNotTakenIncorrect       400863                       # Number of branches that were predicted not taken incorrectly
system.cpu.iew.branchMispredicts               599567                       # Number of branch mispredicts detected at execute
system.cpu.iew.iewExecutedInsts              65832712                       # Number of executed instructions
system.cpu.iew.iewExecLoadInsts              11725827                       # Number of load instructions executed
system.cpu.iew.iewExecSquashedInsts            807646                       # Number of squashed instructions skipped in execute
system.cpu.iew.exec_swp                             0                       # number of swp insts executed
system.cpu.iew.exec_nop                       4170333                       # number of nop insts executed
system.cpu.iew.exec_refs                     19627496                       # number of memory reference insts executed
system.cpu.iew.exec_branches                 10658546                       # Number of branches executed
system.cpu.iew.exec_stores                    7901669                       # Number of stores executed
system.cpu.iew.exec_rate                     0.539223                       # Inst execution rate
system.cpu.iew.wb_sent                       65157511                       # cumulative count of insts sent to commit
system.cpu.iew.wb_count                      65037176                       # cumulative count of insts written-back
system.cpu.iew.wb_producers                  31721592                       # num instructions producing a value
system.cpu.iew.wb_consumers                  41716404                       # num instructions consuming a value
system.cpu.iew.wb_penalized                         0                       # number of instrctions required to write to 'other' IQ
system.cpu.iew.wb_rate                       0.532707                       # insts written-back per cycle
system.cpu.iew.wb_fanout                     0.760411                       # average fanout of values written-back
system.cpu.iew.wb_penalized_rate                    0                       # fraction of instructions written-back that wrote to 'other' IQ
system.cpu.commit.commitSquashedInsts         8966336                       # The number of squashed insts skipped by commit
system.cpu.commit.commitNonSpecStalls          827323                       # The number of times commit has been forced to stall to communicate backwards
system.cpu.commit.branchMispredicts            554821                       # The number of times a branch was mispredicted
system.cpu.commit.committed_per_cycle::samples     92503905                       # Number of insts commited each cycle
system.cpu.commit.committed_per_cycle::mean     0.710496                       # Number of insts commited each cycle
system.cpu.commit.committed_per_cycle::stdev     1.654911                       # Number of insts commited each cycle
system.cpu.commit.committed_per_cycle::underflows            0      0.00%      0.00% # Number of insts commited each cycle
[...]
system.cpu.dcache.StoreCondReq_accesses::cpu.data         4042                       # number of StoreCondReq accesses(hits+misses)
system.cpu.dcache.StoreCondReq_accesses::total         4042                       # number of StoreCondReq accesses(hits+misses)
system.cpu.dcache.demand_accesses::cpu.data       268570                       # number of demand (read+write) accesses
system.cpu.dcache.demand_accesses::total       268570                       # number of demand (read+write) accesses
system.cpu.dcache.overall_accesses::cpu.data       268570                       # number of overall (read+write) accesses
system.cpu.dcache.overall_accesses::total       268570                       # number of overall (read+write) accesses
system.cpu.dcache.ReadReq_miss_rate::cpu.data     0.096543                       # miss rate for ReadReq accesses
system.cpu.dcache.ReadReq_miss_rate::total     0.096543                       # miss rate for ReadReq accesses
system.cpu.dcache.WriteReq_miss_rate::cpu.data     0.236636                       # miss rate for WriteReq accesses
system.cpu.dcache.WriteReq_miss_rate::total     0.236636                       # miss rate for WriteReq accesses
system.cpu.dcache.LoadLockedReq_miss_rate::cpu.data     0.079866                       # miss rate for LoadLockedReq accesses
system.cpu.dcache.LoadLockedReq_miss_rate::total     0.079866                       # miss rate for LoadLockedReq accesses
system.cpu.dcache.StoreCondReq_miss_rate::cpu.data     0.000247                       # miss rate for StoreCondReq accesses
system.cpu.dcache.StoreCondReq_miss_rate::total     0.000247                       # miss rate for StoreCondReq accesses
system.cpu.dcache.demand_miss_rate::cpu.data     0.150981                       # miss rate for demand accesses
system.cpu.dcache.demand_miss_rate::total     0.150981                       # miss rate for demand accesses
system.cpu.dcache.overall_miss_rate::cpu.data     0.150981                       # miss rate for overall accesses
system.cpu.dcache.overall_miss_rate::total     0.150981                       # miss rate for overall accesses
system.cpu.dcache.ReadReq_avg_miss_latency::cpu.data 20860.121554                       # average ReadReq miss latency
system.cpu.dcache.ReadReq_avg_miss_latency::total 20860.121554                       # average ReadReq miss latency
system.cpu.dcache.WriteReq_avg_miss_latency::cpu.data 12908.505102                       # average WriteReq miss latency
system.cpu.dcache.WriteReq_avg_miss_latency::total 12908.505102                       # average WriteReq miss latency
system.cpu.dcache.LoadLockedReq_avg_miss_latency::cpu.data 12646.358543                       # average LoadLockedReq miss latency
system.cpu.dcache.LoadLockedReq_avg_miss_latency::total 12646.358543                       # average LoadLockedReq miss latency
system.cpu.dcache.StoreCondReq_avg_miss_latency::cpu.data        25501                       # average StoreCondReq miss latency
system.cpu.dcache.StoreCondReq_avg_miss_latency::total        25501                       # average StoreCondReq miss latency
system.cpu.dcache.demand_avg_miss_latency::cpu.data 16017.261807                       # average overall miss latency
system.cpu.dcache.demand_avg_miss_latency::total 16017.261807                       # average overall miss latency
system.cpu.dcache.overall_avg_miss_latency::cpu.data 16017.261807                       # average overall miss latency
system.cpu.dcache.overall_avg_miss_latency::total 16017.261807                       # average overall miss latency
system.cpu.dcache.blocked_cycles::no_mshrs         2839                       # number of cycles access was blocked
system.cpu.dcache.blocked_cycles::no_targets            0                       # number of cycles access was blocked
system.cpu.dcache.blocked::no_mshrs               387                       # number of cycles access was blocked
system.cpu.dcache.blocked::no_targets               0                       # number of cycles access was blocked
system.cpu.dcache.avg_blocked_cycles::no_mshrs     7.335917                       # average number of cycles each access was blocked
system.cpu.dcache.avg_blocked_cycles::no_targets          nan                       # average number of cycles each access was blocked
system.cpu.dcache.fast_writes                       0                       # number of fast writes performed
system.cpu.dcache.cache_copies                      0                       # number of cache copies performed
system.cpu.dcache.writebacks::writebacks         6254                       # number of writebacks
system.cpu.dcache.writebacks::total              6254                       # number of writebacks
system.cpu.dcache.ReadReq_mshr_hits::cpu.data        10322                       # number of ReadReq MSHR hits
system.cpu.dcache.ReadReq_mshr_hits::total        10322                       # number of ReadReq MSHR hits
system.cpu.dcache.WriteReq_mshr_hits::cpu.data        21089                       # number of WriteReq MSHR hits
system.cpu.dcache.WriteReq_mshr_hits::total        21089                       # number of WriteReq MSHR hits
system.cpu.dcache.LoadLockedReq_mshr_hits::cpu.data          187                       # number of LoadLockedReq MSHR hits
system.cpu.dcache.LoadLockedReq_mshr_hits::total          187                       # number of LoadLockedReq MSHR hits
system.cpu.dcache.demand_mshr_hits::cpu.data        31411                       # number of demand (read+write) MSHR hits
system.cpu.dcache.demand_mshr_hits::total        31411                       # number of demand (read+write) MSHR hits
system.cpu.dcache.overall_mshr_hits::cpu.data        31411                       # number of overall MSHR hits
system.cpu.dcache.overall_mshr_hits::total        31411                       # number of overall MSHR hits
system.cpu.dcache.ReadReq_mshr_misses::cpu.data         5531                       # number of ReadReq MSHR misses
system.cpu.dcache.ReadReq_mshr_misses::total         5531                       # number of ReadReq MSHR misses
system.cpu.dcache.WriteReq_mshr_misses::cpu.data         3607                       # number of WriteReq MSHR misses
system.cpu.dcache.WriteReq_mshr_misses::total         3607                       # number of WriteReq MSHR misses
system.cpu.dcache.LoadLockedReq_mshr_misses::cpu.data          170                       # number of LoadLockedReq MSHR misses
system.cpu.dcache.LoadLockedReq_mshr_misses::total          170                       # number of LoadLockedReq MSHR misses
system.cpu.dcache.StoreCondReq_mshr_misses::cpu.data            1                       # number of StoreCondReq MSHR misses
system.cpu.dcache.StoreCondReq_mshr_misses::total            1                       # number of StoreCondReq MSHR misses
system.cpu.dcache.demand_mshr_misses::cpu.data         9138                       # number of demand (read+write) MSHR misses
system.cpu.dcache.demand_mshr_misses::total         9138                       # number of demand (read+write) MSHR misses
system.cpu.dcache.overall_mshr_misses::cpu.data         9138                       # number of overall MSHR misses
system.cpu.dcache.overall_mshr_misses::total         9138                       # number of overall MSHR misses
system.cpu.dcache.ReadReq_mshr_miss_latency::cpu.data     86882002                       # number of ReadReq MSHR miss cycles
system.cpu.dcache.ReadReq_mshr_miss_latency::total     86882002                       # number of ReadReq MSHR miss cycles
system.cpu.dcache.WriteReq_mshr_miss_latency::cpu.data     43331740                       # number of WriteReq MSHR miss cycles
system.cpu.dcache.WriteReq_mshr_miss_latency::total     43331740                       # number of WriteReq MSHR miss cycles
system.cpu.dcache.LoadLockedReq_mshr_miss_latency::cpu.data      1962250                       # number of LoadLockedReq MSHR miss cycles
system.cpu.dcache.LoadLockedReq_mshr_miss_latency::total      1962250                       # number of LoadLockedReq MSHR miss cycles
system.cpu.dcache.StoreCondReq_mshr_miss_latency::cpu.data        23499                       # number of StoreCondReq MSHR miss cycles
system.cpu.dcache.StoreCondReq_mshr_miss_latency::total        23499                       # number of StoreCondReq MSHR miss cycles
system.cpu.dcache.demand_mshr_miss_latency::cpu.data    130213742                       # number of demand (read+write) MSHR miss cycles
system.cpu.dcache.demand_mshr_miss_latency::total    130213742                       # number of demand (read+write) MSHR miss cycles
system.cpu.dcache.overall_mshr_miss_latency::cpu.data    130213742                       # number of overall MSHR miss cycles
system.cpu.dcache.overall_mshr_miss_latency::total    130213742                       # number of overall MSHR miss cycles
system.cpu.dcache.ReadReq_mshr_uncacheable_latency::cpu.data     79881500                       # number of ReadReq MSHR uncacheable cycles
system.cpu.dcache.ReadReq_mshr_uncacheable_latency::total     79881500                       # number of ReadReq MSHR uncacheable cycles
system.cpu.dcache.WriteReq_mshr_uncacheable_latency::cpu.data     52371500                       # number of WriteReq MSHR uncacheable cycles
system.cpu.dcache.WriteReq_mshr_uncacheable_latency::total     52371500                       # number of WriteReq MSHR uncacheable cycles
system.cpu.dcache.overall_mshr_uncacheable_latency::cpu.data    132253000                       # number of overall MSHR uncacheable cycles
system.cpu.dcache.overall_mshr_uncacheable_latency::total    132253000                       # number of overall MSHR uncacheable cycles
system.cpu.dcache.ReadReq_mshr_miss_rate::cpu.data     0.033683                       # mshr miss rate for ReadReq accesses
system.cpu.dcache.ReadReq_mshr_miss_rate::total     0.033683                       # mshr miss rate for ReadReq accesses
system.cpu.dcache.WriteReq_mshr_miss_rate::cpu.data     0.034562                       # mshr miss rate for WriteReq accesses
system.cpu.dcache.WriteReq_mshr_miss_rate::total     0.034562                       # mshr miss rate for WriteReq accesses
system.cpu.dcache.LoadLockedReq_mshr_miss_rate::cpu.data     0.038031                       # mshr miss rate for LoadLockedReq accesses
system.cpu.dcache.LoadLockedReq_mshr_miss_rate::total     0.038031                       # mshr miss rate for LoadLockedReq accesses
system.cpu.dcache.StoreCondReq_mshr_miss_rate::cpu.data     0.000247                       # mshr miss rate for StoreCondReq accesses
system.cpu.dcache.StoreCondReq_mshr_miss_rate::total     0.000247                       # mshr miss rate for StoreCondReq accesses
system.cpu.dcache.demand_mshr_miss_rate::cpu.data     0.034025                       # mshr miss rate for demand accesses
system.cpu.dcache.demand_mshr_miss_rate::total     0.034025                       # mshr miss rate for demand accesses
system.cpu.dcache.overall_mshr_miss_rate::cpu.data     0.034025                       # mshr miss rate for overall accesses
system.cpu.dcache.overall_mshr_miss_rate::total     0.034025                       # mshr miss rate for overall accesses
system.cpu.dcache.ReadReq_avg_mshr_miss_latency::cpu.data 15708.190562                       # average ReadReq mshr miss latency
system.cpu.dcache.ReadReq_avg_mshr_miss_latency::total 15708.190562                       # average ReadReq mshr miss latency
system.cpu.dcache.WriteReq_avg_mshr_miss_latency::cpu.data 12013.235376                       # average WriteReq mshr miss latency
system.cpu.dcache.WriteReq_avg_mshr_miss_latency::total 12013.235376                       # average WriteReq mshr miss latency
system.cpu.dcache.LoadLockedReq_avg_mshr_miss_latency::cpu.data 11542.647059                       # average LoadLockedReq mshr miss latency
system.cpu.dcache.LoadLockedReq_avg_mshr_miss_latency::total 11542.647059                       # average LoadLockedReq mshr miss latency
system.cpu.dcache.StoreCondReq_avg_mshr_miss_latency::cpu.data        23499                       # average StoreCondReq mshr miss latency
system.cpu.dcache.StoreCondReq_avg_mshr_miss_latency::total        23499                       # average StoreCondReq mshr miss latency
system.cpu.dcache.demand_avg_mshr_miss_latency::cpu.data 14249.698183                       # average overall mshr miss latency
system.cpu.dcache.demand_avg_mshr_miss_latency::total 14249.698183                       # average overall mshr miss latency
system.cpu.dcache.overall_avg_mshr_miss_latency::cpu.data 14249.698183                       # average overall mshr miss latency
system.cpu.dcache.overall_avg_mshr_miss_latency::total 14249.698183                       # average overall mshr miss latency
system.cpu.dcache.ReadReq_avg_mshr_uncacheable_latency::cpu.data          inf                       # average ReadReq mshr uncacheable latency
system.cpu.dcache.ReadReq_avg_mshr_uncacheable_latency::total          inf                       # average ReadReq mshr uncacheable latency
system.cpu.dcache.WriteReq_avg_mshr_uncacheable_latency::cpu.data          inf                       # average WriteReq mshr uncacheable latency
system.cpu.dcache.WriteReq_avg_mshr_uncacheable_latency::total          inf                       # average WriteReq mshr uncacheable latency
system.cpu.dcache.overall_avg_mshr_uncacheable_latency::cpu.data          inf                       # average overall mshr uncacheable latency
system.cpu.dcache.overall_avg_mshr_uncacheable_latency::total          inf                       # average overall mshr uncacheable latency
system.cpu.dcache.no_allocate_misses                0                       # Number of misses that were no-allocate
system.cpu.kern.inst.arm                            0                       # number of arm instructions executed
system.cpu.kern.inst.quiesce                       39                       # number of quiesce instructions executed
system.cpu.kern.inst.hwrei                       4176                       # number of hwrei instructions executed
system.cpu.kern.ipl_count::0                     1285     43.47%     43.47% # number of times we switched to this ipl
system.cpu.kern.ipl_count::21                      14      0.47%     43.94% # number of times we switched to this ipl
system.cpu.kern.ipl_count::31                    1657     56.06%    100.00% # number of times we switched to this ipl
system.cpu.kern.ipl_count::total                 2956                       # number of times we switched to this ipl
system.cpu.kern.ipl_good::0                      1283     49.73%     49.73% # number of times we switched to this ipl from a different ipl
system.cpu.kern.ipl_good::21                       14      0.54%     50.27% # number of times we switched to this ipl from a different ipl
system.cpu.kern.ipl_good::31                     1283     49.73%    100.00% # number of times we switched to this ipl from a different ipl
system.cpu.kern.ipl_good::total                  2580                       # number of times we switched to this ipl from a different ipl
system.cpu.kern.ipl_ticks::0                710743000     77.79%     77.79% # number of cycles we spent at this ipl
system.cpu.kern.ipl_ticks::21                 7381500      0.81%     78.60% # number of cycles we spent at this ipl
system.cpu.kern.ipl_ticks::31               195567000     21.40%    100.00% # number of cycles we spent at this ipl
system.cpu.kern.ipl_ticks::total            913691500                       # number of cycles we spent at this ipl
system.cpu.kern.ipl_used::0                  0.998444                       # fraction of swpipl calls that actually changed the ipl
system.cpu.kern.ipl_used::21                        1                       # fraction of swpipl calls that actually changed the ipl
system.cpu.kern.ipl_used::31                 0.774291                       # fraction of swpipl calls that actually changed the ipl
system.cpu.kern.ipl_used::total              0.872801                       # fraction of swpipl calls that actually changed the ipl
system.cpu.kern.syscall::2                          1      8.33%      8.33% # number of syscalls executed
system.cpu.kern.syscall::3                          1      8.33%     16.67% # number of syscalls executed
system.cpu.kern.syscall::4                          2     16.67%     33.33% # number of syscalls executed
system.cpu.kern.syscall::6                          1      8.33%     41.67% # number of syscalls executed
system.cpu.kern.syscall::17                         2     16.67%     58.33% # number of syscalls executed
system.cpu.kern.syscall::19                         1      8.33%     66.67% # number of syscalls executed
system.cpu.kern.syscall::48                         1      8.33%     75.00% # number of syscalls executed
system.cpu.kern.syscall::59                         1      8.33%     83.33% # number of syscalls executed
system.cpu.kern.syscall::256                        1      8.33%     91.67% # number of syscalls executed
system.cpu.kern.syscall::257                        1      8.33%    100.00% # number of syscalls executed
system.cpu.kern.syscall::total                     12                       # number of syscalls executed
system.cpu.kern.callpal::swpctx                    84      2.59%      2.59% # number of callpals executed
system.cpu.kern.callpal::tbi                        8      0.25%      2.84% # number of callpals executed
system.cpu.kern.callpal::swpipl                  2823     87.21%     90.05% # number of callpals executed
system.cpu.kern.callpal::rdps                     171      5.28%     95.34% # number of callpals executed
system.cpu.kern.callpal::wrusp                      1      0.03%     95.37% # number of callpals executed
system.cpu.kern.callpal::rdusp                      1      0.03%     95.40% # number of callpals executed
system.cpu.kern.callpal::rti                      119      3.68%     99.07% # number of callpals executed
system.cpu.kern.callpal::callsys                   29      0.90%     99.97% # number of callpals executed
system.cpu.kern.callpal::imb                        1      0.03%    100.00% # number of callpals executed
system.cpu.kern.callpal::total                   3237                       # number of callpals executed
system.cpu.kern.mode_switch::kernel               188                       # number of protection mode switches
system.cpu.kern.mode_switch::user                 104                       # number of protection mode switches
system.cpu.kern.mode_switch::idle                  15                       # number of protection mode switches
system.cpu.kern.mode_good::kernel                 110                      
system.cpu.kern.mode_good::user                   104                      
system.cpu.kern.mode_good::idle                     6                      
system.cpu.kern.mode_switch_good::kernel     0.585106                       # fraction of useful protection mode switches
system.cpu.kern.mode_switch_good::user              1                       # fraction of useful protection mode switches
system.cpu.kern.mode_switch_good::idle       0.400000                       # fraction of useful protection mode switches
system.cpu.kern.mode_switch_good::total      0.716612                       # fraction of useful protection mode switches
system.cpu.kern.mode_ticks::kernel          526074500     57.58%     57.58% # number of ticks spent at the given mode
system.cpu.kern.mode_ticks::user            141279500     15.46%     73.04% # number of ticks spent at the given mode
system.cpu.kern.mode_ticks::idle            246337500     26.96%    100.00% # number of ticks spent at the given mode
system.cpu.kern.swap_context                       84                       # number of times the context was actually changed

---------- End Simulation Statistics   ----------
